*SPEF "ieee 1481-1999"
*DESIGN "user_project_wrapper"
*DATE "11:11:11 Fri 11 11, 1111"
*VENDOR "OpenRCX"
*PROGRAM "Parallel Extraction"
*VERSION "1.0"
*DESIGN_FLOW "NAME_SCOPE LOCAL" "PIN_CAP NONE"
*DIVIDER /
*DELIMITER :
*BUS_DELIMITER []
*T_UNIT 1 NS
*C_UNIT 1 PF
*R_UNIT 1 OHM
*L_UNIT 1 HENRY

*NAME_MAP
*1 io_in[0]
*2 io_in[10]
*3 io_in[11]
*4 io_in[12]
*5 io_in[13]
*6 io_in[14]
*7 io_in[15]
*8 io_in[16]
*9 io_in[17]
*10 io_in[18]
*11 io_in[19]
*12 io_in[1]
*13 io_in[20]
*14 io_in[21]
*15 io_in[22]
*16 io_in[23]
*17 io_in[24]
*18 io_in[25]
*19 io_in[26]
*20 io_in[27]
*21 io_in[28]
*22 io_in[29]
*23 io_in[2]
*24 io_in[30]
*25 io_in[31]
*26 io_in[32]
*27 io_in[33]
*28 io_in[34]
*29 io_in[35]
*30 io_in[36]
*31 io_in[37]
*32 io_in[3]
*33 io_in[4]
*34 io_in[5]
*35 io_in[6]
*36 io_in[7]
*37 io_in[8]
*38 io_in[9]
*39 io_oeb[0]
*40 io_oeb[10]
*41 io_oeb[11]
*42 io_oeb[12]
*43 io_oeb[13]
*44 io_oeb[14]
*45 io_oeb[15]
*46 io_oeb[16]
*47 io_oeb[17]
*48 io_oeb[18]
*49 io_oeb[19]
*50 io_oeb[1]
*51 io_oeb[20]
*52 io_oeb[21]
*53 io_oeb[22]
*54 io_oeb[23]
*55 io_oeb[24]
*56 io_oeb[25]
*57 io_oeb[26]
*58 io_oeb[27]
*59 io_oeb[28]
*60 io_oeb[29]
*61 io_oeb[2]
*62 io_oeb[30]
*63 io_oeb[31]
*64 io_oeb[32]
*65 io_oeb[33]
*66 io_oeb[34]
*67 io_oeb[35]
*68 io_oeb[36]
*69 io_oeb[37]
*70 io_oeb[3]
*71 io_oeb[4]
*72 io_oeb[5]
*73 io_oeb[6]
*74 io_oeb[7]
*75 io_oeb[8]
*76 io_oeb[9]
*77 io_out[0]
*78 io_out[10]
*79 io_out[11]
*80 io_out[12]
*81 io_out[13]
*82 io_out[14]
*83 io_out[15]
*84 io_out[16]
*85 io_out[17]
*86 io_out[18]
*87 io_out[19]
*88 io_out[1]
*89 io_out[20]
*90 io_out[21]
*91 io_out[22]
*92 io_out[23]
*93 io_out[24]
*94 io_out[25]
*95 io_out[26]
*96 io_out[27]
*97 io_out[28]
*98 io_out[29]
*99 io_out[2]
*100 io_out[30]
*101 io_out[31]
*102 io_out[32]
*103 io_out[33]
*104 io_out[34]
*105 io_out[35]
*106 io_out[36]
*107 io_out[37]
*108 io_out[3]
*109 io_out[4]
*110 io_out[5]
*111 io_out[6]
*112 io_out[7]
*113 io_out[8]
*114 io_out[9]
*115 la_data_in[0]
*116 la_data_in[10]
*117 la_data_in[11]
*118 la_data_in[12]
*119 la_data_in[13]
*120 la_data_in[14]
*121 la_data_in[15]
*122 la_data_in[16]
*123 la_data_in[17]
*124 la_data_in[18]
*125 la_data_in[19]
*126 la_data_in[1]
*127 la_data_in[20]
*128 la_data_in[21]
*129 la_data_in[22]
*130 la_data_in[23]
*131 la_data_in[24]
*132 la_data_in[25]
*133 la_data_in[26]
*134 la_data_in[27]
*135 la_data_in[28]
*136 la_data_in[29]
*137 la_data_in[2]
*138 la_data_in[30]
*139 la_data_in[31]
*140 la_data_in[32]
*141 la_data_in[33]
*142 la_data_in[34]
*143 la_data_in[35]
*144 la_data_in[36]
*145 la_data_in[37]
*146 la_data_in[38]
*147 la_data_in[39]
*148 la_data_in[3]
*149 la_data_in[40]
*150 la_data_in[41]
*151 la_data_in[42]
*152 la_data_in[43]
*153 la_data_in[44]
*154 la_data_in[45]
*155 la_data_in[46]
*156 la_data_in[47]
*157 la_data_in[48]
*158 la_data_in[49]
*159 la_data_in[4]
*160 la_data_in[50]
*161 la_data_in[51]
*162 la_data_in[52]
*163 la_data_in[53]
*164 la_data_in[54]
*165 la_data_in[55]
*166 la_data_in[56]
*167 la_data_in[57]
*168 la_data_in[58]
*169 la_data_in[59]
*170 la_data_in[5]
*171 la_data_in[60]
*172 la_data_in[61]
*173 la_data_in[62]
*174 la_data_in[63]
*175 la_data_in[6]
*176 la_data_in[7]
*177 la_data_in[8]
*178 la_data_in[9]
*179 la_data_out[0]
*180 la_data_out[10]
*181 la_data_out[11]
*182 la_data_out[12]
*183 la_data_out[13]
*184 la_data_out[14]
*185 la_data_out[15]
*186 la_data_out[16]
*187 la_data_out[17]
*188 la_data_out[18]
*189 la_data_out[19]
*190 la_data_out[1]
*191 la_data_out[20]
*192 la_data_out[21]
*193 la_data_out[22]
*194 la_data_out[23]
*195 la_data_out[24]
*196 la_data_out[25]
*197 la_data_out[26]
*198 la_data_out[27]
*199 la_data_out[28]
*200 la_data_out[29]
*201 la_data_out[2]
*202 la_data_out[30]
*203 la_data_out[31]
*204 la_data_out[32]
*205 la_data_out[33]
*206 la_data_out[34]
*207 la_data_out[35]
*208 la_data_out[36]
*209 la_data_out[37]
*210 la_data_out[38]
*211 la_data_out[39]
*212 la_data_out[3]
*213 la_data_out[40]
*214 la_data_out[41]
*215 la_data_out[42]
*216 la_data_out[43]
*217 la_data_out[44]
*218 la_data_out[45]
*219 la_data_out[46]
*220 la_data_out[47]
*221 la_data_out[48]
*222 la_data_out[49]
*223 la_data_out[4]
*224 la_data_out[50]
*225 la_data_out[51]
*226 la_data_out[52]
*227 la_data_out[53]
*228 la_data_out[54]
*229 la_data_out[55]
*230 la_data_out[56]
*231 la_data_out[57]
*232 la_data_out[58]
*233 la_data_out[59]
*234 la_data_out[5]
*235 la_data_out[60]
*236 la_data_out[61]
*237 la_data_out[62]
*238 la_data_out[63]
*239 la_data_out[6]
*240 la_data_out[7]
*241 la_data_out[8]
*242 la_data_out[9]
*243 la_oenb[0]
*244 la_oenb[10]
*245 la_oenb[11]
*246 la_oenb[12]
*247 la_oenb[13]
*248 la_oenb[14]
*249 la_oenb[15]
*250 la_oenb[16]
*251 la_oenb[17]
*252 la_oenb[18]
*253 la_oenb[19]
*254 la_oenb[1]
*255 la_oenb[20]
*256 la_oenb[21]
*257 la_oenb[22]
*258 la_oenb[23]
*259 la_oenb[24]
*260 la_oenb[25]
*261 la_oenb[26]
*262 la_oenb[27]
*263 la_oenb[28]
*264 la_oenb[29]
*265 la_oenb[2]
*266 la_oenb[30]
*267 la_oenb[31]
*268 la_oenb[32]
*269 la_oenb[33]
*270 la_oenb[34]
*271 la_oenb[35]
*272 la_oenb[36]
*273 la_oenb[37]
*274 la_oenb[38]
*275 la_oenb[39]
*276 la_oenb[3]
*277 la_oenb[40]
*278 la_oenb[41]
*279 la_oenb[42]
*280 la_oenb[43]
*281 la_oenb[44]
*282 la_oenb[45]
*283 la_oenb[46]
*284 la_oenb[47]
*285 la_oenb[48]
*286 la_oenb[49]
*287 la_oenb[4]
*288 la_oenb[50]
*289 la_oenb[51]
*290 la_oenb[52]
*291 la_oenb[53]
*292 la_oenb[54]
*293 la_oenb[55]
*294 la_oenb[56]
*295 la_oenb[57]
*296 la_oenb[58]
*297 la_oenb[59]
*298 la_oenb[5]
*299 la_oenb[60]
*300 la_oenb[61]
*301 la_oenb[62]
*302 la_oenb[63]
*303 la_oenb[6]
*304 la_oenb[7]
*305 la_oenb[8]
*306 la_oenb[9]
*307 user_clock2
*308 user_irq[0]
*309 user_irq[1]
*310 user_irq[2]
*313 wb_clk_i
*314 wb_rst_i
*315 wbs_ack_o
*316 wbs_adr_i[0]
*317 wbs_adr_i[10]
*318 wbs_adr_i[11]
*319 wbs_adr_i[12]
*320 wbs_adr_i[13]
*321 wbs_adr_i[14]
*322 wbs_adr_i[15]
*323 wbs_adr_i[16]
*324 wbs_adr_i[17]
*325 wbs_adr_i[18]
*326 wbs_adr_i[19]
*327 wbs_adr_i[1]
*328 wbs_adr_i[20]
*329 wbs_adr_i[21]
*330 wbs_adr_i[22]
*331 wbs_adr_i[23]
*332 wbs_adr_i[24]
*333 wbs_adr_i[25]
*334 wbs_adr_i[26]
*335 wbs_adr_i[27]
*336 wbs_adr_i[28]
*337 wbs_adr_i[29]
*338 wbs_adr_i[2]
*339 wbs_adr_i[30]
*340 wbs_adr_i[31]
*341 wbs_adr_i[3]
*342 wbs_adr_i[4]
*343 wbs_adr_i[5]
*344 wbs_adr_i[6]
*345 wbs_adr_i[7]
*346 wbs_adr_i[8]
*347 wbs_adr_i[9]
*348 wbs_cyc_i
*349 wbs_dat_i[0]
*350 wbs_dat_i[10]
*351 wbs_dat_i[11]
*352 wbs_dat_i[12]
*353 wbs_dat_i[13]
*354 wbs_dat_i[14]
*355 wbs_dat_i[15]
*356 wbs_dat_i[16]
*357 wbs_dat_i[17]
*358 wbs_dat_i[18]
*359 wbs_dat_i[19]
*360 wbs_dat_i[1]
*361 wbs_dat_i[20]
*362 wbs_dat_i[21]
*363 wbs_dat_i[22]
*364 wbs_dat_i[23]
*365 wbs_dat_i[24]
*366 wbs_dat_i[25]
*367 wbs_dat_i[26]
*368 wbs_dat_i[27]
*369 wbs_dat_i[28]
*370 wbs_dat_i[29]
*371 wbs_dat_i[2]
*372 wbs_dat_i[30]
*373 wbs_dat_i[31]
*374 wbs_dat_i[3]
*375 wbs_dat_i[4]
*376 wbs_dat_i[5]
*377 wbs_dat_i[6]
*378 wbs_dat_i[7]
*379 wbs_dat_i[8]
*380 wbs_dat_i[9]
*381 wbs_dat_o[0]
*382 wbs_dat_o[10]
*383 wbs_dat_o[11]
*384 wbs_dat_o[12]
*385 wbs_dat_o[13]
*386 wbs_dat_o[14]
*387 wbs_dat_o[15]
*388 wbs_dat_o[16]
*389 wbs_dat_o[17]
*390 wbs_dat_o[18]
*391 wbs_dat_o[19]
*392 wbs_dat_o[1]
*393 wbs_dat_o[20]
*394 wbs_dat_o[21]
*395 wbs_dat_o[22]
*396 wbs_dat_o[23]
*397 wbs_dat_o[24]
*398 wbs_dat_o[25]
*399 wbs_dat_o[26]
*400 wbs_dat_o[27]
*401 wbs_dat_o[28]
*402 wbs_dat_o[29]
*403 wbs_dat_o[2]
*404 wbs_dat_o[30]
*405 wbs_dat_o[31]
*406 wbs_dat_o[3]
*407 wbs_dat_o[4]
*408 wbs_dat_o[5]
*409 wbs_dat_o[6]
*410 wbs_dat_o[7]
*411 wbs_dat_o[8]
*412 wbs_dat_o[9]
*413 wbs_sel_i[0]
*414 wbs_sel_i[1]
*415 wbs_sel_i[2]
*416 wbs_sel_i[3]
*417 wbs_stb_i
*418 wbs_we_i
*419 wrapped_multiplier_8_1

*PORTS
io_in[0] I
io_in[10] I
io_in[11] I
io_in[12] I
io_in[13] I
io_in[14] I
io_in[15] I
io_in[16] I
io_in[17] I
io_in[18] I
io_in[19] I
io_in[1] I
io_in[20] I
io_in[21] I
io_in[22] I
io_in[23] I
io_in[24] I
io_in[25] I
io_in[26] I
io_in[27] I
io_in[28] I
io_in[29] I
io_in[2] I
io_in[30] I
io_in[31] I
io_in[32] I
io_in[33] I
io_in[34] I
io_in[35] I
io_in[36] I
io_in[37] I
io_in[3] I
io_in[4] I
io_in[5] I
io_in[6] I
io_in[7] I
io_in[8] I
io_in[9] I
io_oeb[0] O
io_oeb[10] O
io_oeb[11] O
io_oeb[12] O
io_oeb[13] O
io_oeb[14] O
io_oeb[15] O
io_oeb[16] O
io_oeb[17] O
io_oeb[18] O
io_oeb[19] O
io_oeb[1] O
io_oeb[20] O
io_oeb[21] O
io_oeb[22] O
io_oeb[23] O
io_oeb[24] O
io_oeb[25] O
io_oeb[26] O
io_oeb[27] O
io_oeb[28] O
io_oeb[29] O
io_oeb[2] O
io_oeb[30] O
io_oeb[31] O
io_oeb[32] O
io_oeb[33] O
io_oeb[34] O
io_oeb[35] O
io_oeb[36] O
io_oeb[37] O
io_oeb[3] O
io_oeb[4] O
io_oeb[5] O
io_oeb[6] O
io_oeb[7] O
io_oeb[8] O
io_oeb[9] O
io_out[0] O
io_out[10] O
io_out[11] O
io_out[12] O
io_out[13] O
io_out[14] O
io_out[15] O
io_out[16] O
io_out[17] O
io_out[18] O
io_out[19] O
io_out[1] O
io_out[20] O
io_out[21] O
io_out[22] O
io_out[23] O
io_out[24] O
io_out[25] O
io_out[26] O
io_out[27] O
io_out[28] O
io_out[29] O
io_out[2] O
io_out[30] O
io_out[31] O
io_out[32] O
io_out[33] O
io_out[34] O
io_out[35] O
io_out[36] O
io_out[37] O
io_out[3] O
io_out[4] O
io_out[5] O
io_out[6] O
io_out[7] O
io_out[8] O
io_out[9] O
la_data_in[0] I
la_data_in[10] I
la_data_in[11] I
la_data_in[12] I
la_data_in[13] I
la_data_in[14] I
la_data_in[15] I
la_data_in[16] I
la_data_in[17] I
la_data_in[18] I
la_data_in[19] I
la_data_in[1] I
la_data_in[20] I
la_data_in[21] I
la_data_in[22] I
la_data_in[23] I
la_data_in[24] I
la_data_in[25] I
la_data_in[26] I
la_data_in[27] I
la_data_in[28] I
la_data_in[29] I
la_data_in[2] I
la_data_in[30] I
la_data_in[31] I
la_data_in[32] I
la_data_in[33] I
la_data_in[34] I
la_data_in[35] I
la_data_in[36] I
la_data_in[37] I
la_data_in[38] I
la_data_in[39] I
la_data_in[3] I
la_data_in[40] I
la_data_in[41] I
la_data_in[42] I
la_data_in[43] I
la_data_in[44] I
la_data_in[45] I
la_data_in[46] I
la_data_in[47] I
la_data_in[48] I
la_data_in[49] I
la_data_in[4] I
la_data_in[50] I
la_data_in[51] I
la_data_in[52] I
la_data_in[53] I
la_data_in[54] I
la_data_in[55] I
la_data_in[56] I
la_data_in[57] I
la_data_in[58] I
la_data_in[59] I
la_data_in[5] I
la_data_in[60] I
la_data_in[61] I
la_data_in[62] I
la_data_in[63] I
la_data_in[6] I
la_data_in[7] I
la_data_in[8] I
la_data_in[9] I
la_data_out[0] O
la_data_out[10] O
la_data_out[11] O
la_data_out[12] O
la_data_out[13] O
la_data_out[14] O
la_data_out[15] O
la_data_out[16] O
la_data_out[17] O
la_data_out[18] O
la_data_out[19] O
la_data_out[1] O
la_data_out[20] O
la_data_out[21] O
la_data_out[22] O
la_data_out[23] O
la_data_out[24] O
la_data_out[25] O
la_data_out[26] O
la_data_out[27] O
la_data_out[28] O
la_data_out[29] O
la_data_out[2] O
la_data_out[30] O
la_data_out[31] O
la_data_out[32] O
la_data_out[33] O
la_data_out[34] O
la_data_out[35] O
la_data_out[36] O
la_data_out[37] O
la_data_out[38] O
la_data_out[39] O
la_data_out[3] O
la_data_out[40] O
la_data_out[41] O
la_data_out[42] O
la_data_out[43] O
la_data_out[44] O
la_data_out[45] O
la_data_out[46] O
la_data_out[47] O
la_data_out[48] O
la_data_out[49] O
la_data_out[4] O
la_data_out[50] O
la_data_out[51] O
la_data_out[52] O
la_data_out[53] O
la_data_out[54] O
la_data_out[55] O
la_data_out[56] O
la_data_out[57] O
la_data_out[58] O
la_data_out[59] O
la_data_out[5] O
la_data_out[60] O
la_data_out[61] O
la_data_out[62] O
la_data_out[63] O
la_data_out[6] O
la_data_out[7] O
la_data_out[8] O
la_data_out[9] O
la_oenb[0] I
la_oenb[10] I
la_oenb[11] I
la_oenb[12] I
la_oenb[13] I
la_oenb[14] I
la_oenb[15] I
la_oenb[16] I
la_oenb[17] I
la_oenb[18] I
la_oenb[19] I
la_oenb[1] I
la_oenb[20] I
la_oenb[21] I
la_oenb[22] I
la_oenb[23] I
la_oenb[24] I
la_oenb[25] I
la_oenb[26] I
la_oenb[27] I
la_oenb[28] I
la_oenb[29] I
la_oenb[2] I
la_oenb[30] I
la_oenb[31] I
la_oenb[32] I
la_oenb[33] I
la_oenb[34] I
la_oenb[35] I
la_oenb[36] I
la_oenb[37] I
la_oenb[38] I
la_oenb[39] I
la_oenb[3] I
la_oenb[40] I
la_oenb[41] I
la_oenb[42] I
la_oenb[43] I
la_oenb[44] I
la_oenb[45] I
la_oenb[46] I
la_oenb[47] I
la_oenb[48] I
la_oenb[49] I
la_oenb[4] I
la_oenb[50] I
la_oenb[51] I
la_oenb[52] I
la_oenb[53] I
la_oenb[54] I
la_oenb[55] I
la_oenb[56] I
la_oenb[57] I
la_oenb[58] I
la_oenb[59] I
la_oenb[5] I
la_oenb[60] I
la_oenb[61] I
la_oenb[62] I
la_oenb[63] I
la_oenb[6] I
la_oenb[7] I
la_oenb[8] I
la_oenb[9] I
user_clock2 I
user_irq[0] O
user_irq[1] O
user_irq[2] O
wb_clk_i I
wb_rst_i I
wbs_ack_o O
wbs_adr_i[0] I
wbs_adr_i[10] I
wbs_adr_i[11] I
wbs_adr_i[12] I
wbs_adr_i[13] I
wbs_adr_i[14] I
wbs_adr_i[15] I
wbs_adr_i[16] I
wbs_adr_i[17] I
wbs_adr_i[18] I
wbs_adr_i[19] I
wbs_adr_i[1] I
wbs_adr_i[20] I
wbs_adr_i[21] I
wbs_adr_i[22] I
wbs_adr_i[23] I
wbs_adr_i[24] I
wbs_adr_i[25] I
wbs_adr_i[26] I
wbs_adr_i[27] I
wbs_adr_i[28] I
wbs_adr_i[29] I
wbs_adr_i[2] I
wbs_adr_i[30] I
wbs_adr_i[31] I
wbs_adr_i[3] I
wbs_adr_i[4] I
wbs_adr_i[5] I
wbs_adr_i[6] I
wbs_adr_i[7] I
wbs_adr_i[8] I
wbs_adr_i[9] I
wbs_cyc_i I
wbs_dat_i[0] I
wbs_dat_i[10] I
wbs_dat_i[11] I
wbs_dat_i[12] I
wbs_dat_i[13] I
wbs_dat_i[14] I
wbs_dat_i[15] I
wbs_dat_i[16] I
wbs_dat_i[17] I
wbs_dat_i[18] I
wbs_dat_i[19] I
wbs_dat_i[1] I
wbs_dat_i[20] I
wbs_dat_i[21] I
wbs_dat_i[22] I
wbs_dat_i[23] I
wbs_dat_i[24] I
wbs_dat_i[25] I
wbs_dat_i[26] I
wbs_dat_i[27] I
wbs_dat_i[28] I
wbs_dat_i[29] I
wbs_dat_i[2] I
wbs_dat_i[30] I
wbs_dat_i[31] I
wbs_dat_i[3] I
wbs_dat_i[4] I
wbs_dat_i[5] I
wbs_dat_i[6] I
wbs_dat_i[7] I
wbs_dat_i[8] I
wbs_dat_i[9] I
wbs_dat_o[0] O
wbs_dat_o[10] O
wbs_dat_o[11] O
wbs_dat_o[12] O
wbs_dat_o[13] O
wbs_dat_o[14] O
wbs_dat_o[15] O
wbs_dat_o[16] O
wbs_dat_o[17] O
wbs_dat_o[18] O
wbs_dat_o[19] O
wbs_dat_o[1] O
wbs_dat_o[20] O
wbs_dat_o[21] O
wbs_dat_o[22] O
wbs_dat_o[23] O
wbs_dat_o[24] O
wbs_dat_o[25] O
wbs_dat_o[26] O
wbs_dat_o[27] O
wbs_dat_o[28] O
wbs_dat_o[29] O
wbs_dat_o[2] O
wbs_dat_o[30] O
wbs_dat_o[31] O
wbs_dat_o[3] O
wbs_dat_o[4] O
wbs_dat_o[5] O
wbs_dat_o[6] O
wbs_dat_o[7] O
wbs_dat_o[8] O
wbs_dat_o[9] O
wbs_sel_i[0] I
wbs_sel_i[1] I
wbs_sel_i[2] I
wbs_sel_i[3] I
wbs_stb_i I
wbs_we_i I

*D_NET *1 0.195459
*CONN
*P io_in[0] I
*I *419:io_in[0] I *D wrapped_multiplier_8
*CAP
1 io_in[0] 0.0323536
2 *419:io_in[0] 0.0298814
3 *1:10 0.0298814
4 *1:8 0.0354948
5 *1:7 0.0354948
6 *1:5 0.0323536
*RES
1 io_in[0] *1:5 354.825 
2 *1:5 *1:7 4.5 
3 *1:7 *1:8 353.79 
4 *1:8 *1:10 4.5 
5 *1:10 *419:io_in[0] 324.045 
*END

*D_NET *2 0.365618
*CONN
*P io_in[10] I
*I *419:io_in[10] I *D wrapped_multiplier_8
*CAP
1 io_in[10] 0.000621435
2 *419:io_in[10] 0.0616847
3 *2:10 0.0616847
4 *2:8 0.0233145
5 *2:7 0.0239359
6 *2:8 *79:14 0.194377
*RES
1 io_in[10] *2:7 10.845 
2 *2:7 *2:8 359.19 
3 *2:8 *2:10 4.5 
4 *2:10 *419:io_in[10] 672.525 
*END

*D_NET *3 0.212391
*CONN
*P io_in[11] I
*I *419:io_in[11] I *D wrapped_multiplier_8
*CAP
1 io_in[11] 0.000280649
2 *419:io_in[11] 0.00117891
3 *3:16 0.0355205
4 *3:15 0.0343416
5 *3:13 0.0694428
6 *3:11 0.0697235
7 *419:io_in[11] *7:12 0
8 *419:io_in[11] *87:14 0.00190265
9 *419:io_in[11] *92:11 0
10 *3:16 *112:12 0
*RES
1 io_in[11] *3:11 2.655 
2 *3:11 *3:13 757.17 
3 *3:13 *3:15 4.5 
4 *3:15 *3:16 342.99 
5 *3:16 *419:io_in[11] 31.3474 
*END

*D_NET *4 0.263785
*CONN
*P io_in[12] I
*I *419:io_in[12] I *D wrapped_multiplier_8
*CAP
1 io_in[12] 0.000215438
2 *419:io_in[12] 0.000881417
3 *4:16 0.0445132
4 *4:15 0.0436318
5 *4:13 0.0718099
6 *4:11 0.0720254
7 *4:16 *7:17 0.000572841
8 *4:16 *8:19 0.0301355
*RES
1 io_in[12] *4:11 2.115 
2 *4:11 *4:13 782.91 
3 *4:13 *4:15 4.5 
4 *4:15 *4:16 455.85 
5 *4:16 *419:io_in[12] 13.005 
*END

*D_NET *5 0.222262
*CONN
*P io_in[13] I
*I *419:io_in[13] I *D wrapped_multiplier_8
*CAP
1 io_in[13] 0.000145659
2 *419:io_in[13] 0.0010703
3 *5:16 0.0481267
4 *5:15 0.0470564
5 *5:13 0.0628584
6 *5:11 0.0630041
7 *419:io_in[13] *37:19 0
8 *5:16 *100:12 0
*RES
1 io_in[13] *5:11 1.575 
2 *5:11 *5:13 686.97 
3 *5:13 *5:15 4.5 
4 *5:15 *5:16 470.07 
5 *5:16 *419:io_in[13] 27.3874 
*END

*D_NET *6 0.239118
*CONN
*P io_in[14] I
*I *419:io_in[14] I *D wrapped_multiplier_8
*CAP
1 io_in[14] 0.00397136
2 *419:io_in[14] 0.000379914
3 *6:12 0.0543593
4 *6:11 0.0539794
5 *6:9 0.0607854
6 *6:7 0.0647568
7 *6:12 *93:10 0.000886113
*RES
1 io_in[14] *6:7 43.425 
2 *6:7 *6:9 664.2 
3 *6:9 *6:11 4.5 
4 *6:11 *6:12 541.89 
5 *6:12 *419:io_in[14] 12.9052 
*END

*D_NET *7 0.293177
*CONN
*P io_in[15] I
*I *419:io_in[15] I *D wrapped_multiplier_8
*CAP
1 io_in[15] 0.00433622
2 *419:io_in[15] 0.000941763
3 *7:17 0.00325416
4 *7:12 0.0712527
5 *7:11 0.0689403
6 *7:9 0.0550125
7 *7:7 0.0593488
8 *7:12 *32:19 0
9 *7:12 *39:11 0
10 *7:12 *61:13 0
11 *7:12 *70:11 0.00380164
12 *7:12 *72:14 0
13 *7:12 *87:13 0
14 *7:17 *8:19 0.0257164
15 *419:io_in[11] *7:12 0
16 *4:16 *7:17 0.000572841
*RES
1 io_in[15] *7:7 43.245 
2 *7:7 *7:9 549.54 
3 *7:9 *7:11 4.5 
4 *7:11 *7:12 764.73 
5 *7:12 *7:17 49.23 
6 *7:17 *419:io_in[15] 8.865 
*END

*D_NET *8 0.789552
*CONN
*P io_in[16] I
*I *419:io_in[16] I *D wrapped_multiplier_8
*CAP
1 io_in[16] 0.000164983
2 *419:io_in[16] 0.000897343
3 *8:19 0.00409444
4 *8:18 0.0031971
5 *8:16 0.0289854
6 *8:15 0.0289854
7 *8:13 0.0595678
8 *8:11 0.0597328
9 *8:16 *39:11 0
10 *8:16 *40:12 0.000690085
11 *8:16 *79:11 0.453528
12 *8:16 *101:11 0.0731731
13 *8:19 *50:8 0.0206836
14 *4:16 *8:19 0.0301355
15 *7:17 *8:19 0.0257164
*RES
1 io_in[16] *8:11 1.935 
2 *8:11 *8:13 594.99 
3 *8:13 *8:15 4.5 
4 *8:15 *8:16 656.55 
5 *8:16 *8:18 4.5 
6 *8:18 *8:19 80.91 
7 *8:19 *419:io_in[16] 13.185 
*END

*D_NET *9 0.52855
*CONN
*P io_in[17] I
*I *419:io_in[17] I *D wrapped_multiplier_8
*CAP
1 io_in[17] 0.000291323
2 *419:io_in[17] 0.00100373
3 *9:16 0.0264283
4 *9:15 0.0254245
5 *9:13 0.058755
6 *9:11 0.0590463
7 *9:16 *37:19 0.334411
8 *9:16 *52:13 0
9 *9:16 *93:11 0.0231891
*RES
1 io_in[17] *9:11 3.015 
2 *9:11 *9:13 586.89 
3 *9:13 *9:15 4.5 
4 *9:15 *9:16 506.79 
5 *9:16 *419:io_in[17] 22.9774 
*END

*D_NET *10 0.562669
*CONN
*P io_in[18] I
*I *419:io_in[18] I *D wrapped_multiplier_8
*CAP
1 io_in[18] 0.000650073
2 *419:io_in[18] 0.000304155
3 *10:14 0.0031667
4 *10:13 0.00286255
5 *10:11 0.0690284
6 *10:10 0.0690284
7 *10:8 0.0100086
8 *10:7 0.0106587
9 *10:7 *85:8 1.22751e-05
10 *10:8 *83:17 0.176873
11 *10:8 *87:17 0.100777
12 *10:11 *51:20 0
13 *10:14 *22:11 0.0101535
14 *10:14 *42:8 0.0650862
15 *10:14 *44:8 0.00298408
16 *10:14 *45:14 0.00271992
17 *10:14 *72:8 0.0383553
*RES
1 io_in[18] *10:7 10.845 
2 *10:7 *10:8 288.45 
3 *10:8 *10:10 4.5 
4 *10:10 *10:11 688.05 
5 *10:11 *10:13 4.5 
6 *10:13 *10:14 121.23 
7 *10:14 *419:io_in[18] 7.245 
*END

*D_NET *11 0.313692
*CONN
*P io_in[19] I
*I *419:io_in[19] I *D wrapped_multiplier_8
*CAP
1 io_in[19] 0.000950837
2 *419:io_in[19] 0.00112028
3 *11:11 0.0597399
4 *11:10 0.0586196
5 *11:8 0.0311276
6 *11:7 0.0320784
7 *11:8 *14:10 0
8 *11:11 *74:8 0.130055
*RES
1 io_in[19] *11:7 13.725 
2 *11:7 *11:8 339.57 
3 *11:8 *11:10 4.5 
4 *11:10 *11:11 669.87 
5 *11:11 *419:io_in[19] 15.705 
*END

*D_NET *12 0.191005
*CONN
*P io_in[1] I
*I *419:io_in[1] I *D wrapped_multiplier_8
*CAP
1 io_in[1] 0.000280649
2 *419:io_in[1] 0.00146353
3 *12:19 0.0425109
4 *12:18 0.0410474
5 *12:16 0.0284555
6 *12:15 0.0284555
7 *12:13 0.0242554
8 *12:11 0.0245361
*RES
1 io_in[1] *12:11 2.655 
2 *12:11 *12:13 265.77 
3 *12:13 *12:15 4.5 
4 *12:15 *12:16 283.59 
5 *12:16 *12:18 4.5 
6 *12:18 *12:19 401.04 
7 *12:19 *419:io_in[1] 13.815 
*END

*D_NET *13 0.162605
*CONN
*P io_in[20] I
*I *419:io_in[20] I *D wrapped_multiplier_8
*CAP
1 io_in[20] 0.00435371
2 *419:io_in[20] 0.00126586
3 *13:12 0.0117794
4 *13:11 0.0105135
5 *13:9 0.0649827
6 *13:7 0.0693364
7 *419:io_in[20] *47:14 0.000373018
8 *13:12 *47:14 0
9 *13:12 *82:11 0
10 *13:12 *109:11 0
*RES
1 io_in[20] *13:7 43.245 
2 *13:7 *13:9 648 
3 *13:9 *13:11 4.5 
4 *13:11 *13:12 113.58 
5 *13:12 *419:io_in[20] 14.355 
*END

*D_NET *14 0.142593
*CONN
*P io_in[21] I
*I *419:io_in[21] I *D wrapped_multiplier_8
*CAP
1 io_in[21] 0.00115169
2 *419:io_in[21] 0.00158729
3 *14:16 0.00326988
4 *14:11 0.0593253
5 *14:10 0.0587944
6 *419:io_in[21] *97:13 0
7 *14:10 *87:17 0
8 *14:16 *35:19 0.0169724
9 *14:16 *38:15 0.00149207
10 *11:8 *14:10 0
*RES
1 io_in[21] *14:10 19.575 
2 *14:10 *14:11 576.27 
3 *14:11 *14:16 40.05 
4 *14:16 *419:io_in[21] 23.8578 
*END

*D_NET *15 0.13256
*CONN
*P io_in[22] I
*I *419:io_in[22] I *D wrapped_multiplier_8
*CAP
1 io_in[22] 0.000290594
2 *419:io_in[22] 0.00325425
3 *15:13 0.0626808
4 *15:11 0.0597171
5 *419:io_in[22] *71:17 0.00118123
6 *419:io_in[22] *79:11 0.0039167
7 *419:io_in[22] *81:13 0.00105689
8 *15:13 *91:10 0.00046262
*RES
1 io_in[22] *15:11 3.015 
2 *15:11 *15:13 595.35 
3 *15:13 *419:io_in[22] 49.365 
*END

*D_NET *16 0.140315
*CONN
*P io_in[23] I
*I *419:io_in[23] I *D wrapped_multiplier_8
*CAP
1 io_in[23] 0.000104982
2 *419:io_in[23] 0.00942763
3 *16:15 0.00942763
4 *16:13 0.0606248
5 *16:11 0.0607298
6 *16:13 *18:16 0
*RES
1 io_in[23] *16:11 1.395 
2 *16:11 *16:13 605.61 
3 *16:13 *16:15 4.5 
4 *16:15 *419:io_in[23] 100.125 
*END

*D_NET *17 0.218509
*CONN
*P io_in[24] I
*I *419:io_in[24] I *D wrapped_multiplier_8
*CAP
1 io_in[24] 0.000611329
2 *419:io_in[24] 0.00014207
3 *17:14 0.0464818
4 *17:13 0.0463398
5 *17:11 0.025773
6 *17:10 0.025773
7 *17:8 0.0136792
8 *17:7 0.0142905
9 *17:11 *19:13 0
10 *17:14 *26:16 0.00699684
11 *17:14 *40:12 0.00153439
12 *17:14 *55:14 0
13 *17:14 *101:8 0.0368868
*RES
1 io_in[24] *17:7 10.665 
2 *17:7 *17:8 136.53 
3 *17:8 *17:10 4.5 
4 *17:10 *17:11 279.63 
5 *17:11 *17:13 4.5 
6 *17:13 *17:14 499.23 
7 *17:14 *419:io_in[24] 5.985 
*END

*D_NET *18 0.155571
*CONN
*P io_in[25] I
*I *419:io_in[25] I *D wrapped_multiplier_8
*CAP
1 io_in[25] 0.000237175
2 *419:io_in[25] 0.00949801
3 *18:18 0.00949801
4 *18:16 0.059992
5 *18:15 0.059992
6 *18:13 0.00805858
7 *18:11 0.00829575
8 *16:13 *18:16 0
*RES
1 io_in[25] *18:11 2.295 
2 *18:11 *18:13 87.21 
3 *18:13 *18:15 4.5 
4 *18:15 *18:16 598.95 
5 *18:16 *18:18 4.5 
6 *18:18 *419:io_in[25] 101.565 
*END

*D_NET *19 0.125711
*CONN
*P io_in[26] I
*I *419:io_in[26] I *D wrapped_multiplier_8
*CAP
1 io_in[26] 0.00010158
2 *419:io_in[26] 0.0015846
3 *19:16 0.0467727
4 *19:15 0.0451881
5 *19:13 0.0159811
6 *19:11 0.0160827
7 *17:11 *19:13 0
*RES
1 io_in[26] *19:11 1.215 
2 *19:11 *19:13 173.61 
3 *19:13 *19:15 4.5 
4 *19:15 *19:16 451.53 
5 *19:16 *419:io_in[26] 19.665 
*END

*D_NET *20 0.131274
*CONN
*P io_in[27] I
*I *419:io_in[27] I *D wrapped_multiplier_8
*CAP
1 io_in[27] 0.000310538
2 *419:io_in[27] 0.00152699
3 *20:16 0.0384037
4 *20:15 0.0368767
5 *20:13 0.0225866
6 *20:11 0.0228971
7 *419:io_in[27] *24:19 0.00839292
8 *419:io_in[27] *32:19 0
9 *419:io_in[27] *52:13 0.000244793
10 *419:io_in[27] *98:14 3.45239e-05
*RES
1 io_in[27] *20:11 2.835 
2 *20:11 *20:13 219.51 
3 *20:13 *20:15 4.5 
4 *20:15 *20:16 368.37 
5 *20:16 *419:io_in[27] 40.3474 
*END

*D_NET *21 0.175384
*CONN
*P io_in[28] I
*I *419:io_in[28] I *D wrapped_multiplier_8
*CAP
1 io_in[28] 0.000611329
2 *419:io_in[28] 0.00069103
3 *21:14 0.0153365
4 *21:13 0.0146454
5 *21:11 0.0264643
6 *21:10 0.0264643
7 *21:8 0.0127507
8 *21:7 0.013362
9 *21:8 *60:14 0.0158963
10 *21:11 *24:13 0
11 *21:14 *60:8 0.0491619
*RES
1 io_in[28] *21:7 10.665 
2 *21:7 *21:8 137.61 
3 *21:8 *21:10 4.5 
4 *21:10 *21:11 285.03 
5 *21:11 *21:13 4.5 
6 *21:13 *21:14 177.39 
7 *21:14 *419:io_in[28] 11.385 
*END

*D_NET *22 0.207137
*CONN
*P io_in[29] I
*I *419:io_in[29] I *D wrapped_multiplier_8
*CAP
1 io_in[29] 0.0128022
2 *419:io_in[29] 0.000271452
3 *22:11 0.00463517
4 *22:10 0.00436372
5 *22:8 0.0338963
6 *22:7 0.0338963
7 *22:5 0.0128022
8 *22:11 *42:8 0.00179035
9 *22:11 *44:8 0.0343769
10 *22:11 *53:8 0.00230798
11 *22:11 *58:10 0.0061545
12 *22:11 *64:8 0.000661816
13 *22:11 *72:8 0.0157277
14 *22:11 *89:8 0.00401608
15 *22:11 *96:8 0.0292806
16 *10:14 *22:11 0.0101535
*RES
1 io_in[29] *22:5 138.465 
2 *22:5 *22:7 4.5 
3 *22:7 *22:8 337.95 
4 *22:8 *22:10 4.5 
5 *22:10 *22:11 142.83 
6 *22:11 *419:io_in[29] 6.885 
*END

*D_NET *23 0.157603
*CONN
*P io_in[2] I
*I *419:io_in[2] I *D wrapped_multiplier_8
*CAP
1 io_in[2] 0.000215438
2 *419:io_in[2] 8.3608e-05
3 *23:19 0.0494184
4 *23:18 0.0493348
5 *23:16 0.0162518
6 *23:15 0.0162518
7 *23:13 0.0129157
8 *23:11 0.0131311
*RES
1 io_in[2] *23:11 2.115 
2 *23:11 *23:13 141.57 
3 *23:13 *23:15 4.5 
4 *23:15 *23:16 162.09 
5 *23:16 *23:18 4.5 
6 *23:18 *23:19 537.39 
7 *23:19 *419:io_in[2] 0.945 
*END

*D_NET *24 0.141119
*CONN
*P io_in[30] I
*I *419:io_in[30] I *D wrapped_multiplier_8
*CAP
1 io_in[30] 0.000237175
2 *419:io_in[30] 0.000718424
3 *24:19 0.00206817
4 *24:18 0.00134974
5 *24:16 0.0163504
6 *24:15 0.0163504
7 *24:13 0.0158328
8 *24:11 0.01607
9 *24:19 *32:19 0
10 *24:19 *51:16 0.000149207
11 *24:19 *56:13 0.00951187
12 *24:19 *91:13 0.0165993
13 *24:19 *92:11 0.0374883
14 *419:io_in[27] *24:19 0.00839292
15 *21:11 *24:13 0
*RES
1 io_in[30] *24:11 2.295 
2 *24:11 *24:13 170.91 
3 *24:13 *24:15 4.5 
4 *24:15 *24:16 163.35 
5 *24:16 *24:18 4.5 
6 *24:18 *24:19 60.75 
7 *24:19 *419:io_in[30] 20.2774 
*END

*D_NET *25 0.186636
*CONN
*P io_in[31] I
*I *419:io_in[31] I *D wrapped_multiplier_8
*CAP
1 io_in[31] 0.00226497
2 *419:io_in[31] 0.000565407
3 *25:19 0.0146863
4 *25:18 0.0141209
5 *25:16 0.0203522
6 *25:15 0.0226171
7 *25:19 *45:11 0.00217594
8 *25:19 *53:8 0
9 *25:19 *54:13 0.00540866
10 *25:19 *54:14 0
11 *25:19 *63:8 0.0699407
12 *25:19 *95:8 0.0345042
*RES
1 io_in[31] *25:15 28.125 
2 *25:15 *25:16 202.95 
3 *25:16 *25:18 4.5 
4 *25:18 *25:19 225.45 
5 *25:19 *419:io_in[31] 9.585 
*END

*D_NET *26 0.103139
*CONN
*P io_in[32] I
*I *419:io_in[32] I *D wrapped_multiplier_8
*CAP
1 io_in[32] 0.000310538
2 *419:io_in[32] 0.000202416
3 *26:16 0.00484959
4 *26:15 0.00464717
5 *26:13 0.026677
6 *26:11 0.0269876
7 *26:16 *101:8 0.0324678
8 *17:14 *26:16 0.00699684
*RES
1 io_in[32] *26:11 2.835 
2 *26:11 *26:13 286.11 
3 *26:13 *26:15 4.5 
4 *26:15 *26:16 78.39 
5 *26:16 *419:io_in[32] 6.345 
*END

*D_NET *27 0.0384759
*CONN
*P io_in[33] I
*I *419:io_in[33] I *D wrapped_multiplier_8
*CAP
1 io_in[33] 0.000167681
2 *419:io_in[33] 0.0101903
3 *27:18 0.0106372
4 *27:13 0.00887997
5 *27:11 0.0086008
*RES
1 io_in[33] *27:11 1.755 
2 *27:11 *27:13 91.17 
3 *27:13 *27:18 13.41 
4 *27:18 *419:io_in[33] 97.605 
*END

*D_NET *28 0.0405553
*CONN
*P io_in[34] I
*I *419:io_in[34] I *D wrapped_multiplier_8
*CAP
1 io_in[34] 0.0194104
2 *419:io_in[34] 0.00086724
3 *28:5 0.0202777
4 *419:io_in[34] *54:13 0
5 *28:5 *59:8 0
*RES
1 io_in[34] *28:5 211.005 
2 *28:5 *419:io_in[34] 11.925 
*END

*D_NET *29 0.0576766
*CONN
*P io_in[35] I
*I *419:io_in[35] I *D wrapped_multiplier_8
*CAP
1 io_in[35] 0.000237175
2 *419:io_in[35] 0.000147297
3 *29:22 0.00758248
4 *29:21 0.00743518
5 *29:19 0.0126695
6 *29:18 0.0130858
7 *29:13 0.00834915
8 *29:11 0.00817004
9 *29:13 *105:10 0
*RES
1 io_in[35] *29:11 2.295 
2 *29:11 *29:13 85.95 
3 *29:13 *29:18 13.05 
4 *29:18 *29:19 137.79 
5 *29:19 *29:21 4.5 
6 *29:21 *29:22 73.71 
7 *29:22 *419:io_in[35] 1.485 
*END

*D_NET *30 0.0839525
*CONN
*P io_in[36] I
*I *419:io_in[36] I *D wrapped_multiplier_8
*CAP
1 io_in[36] 0.00010158
2 *419:io_in[36] 0.00014207
3 *30:16 0.0156841
4 *30:15 0.015542
5 *30:13 0.0261905
6 *30:11 0.0262921
7 *30:16 *107:14 0
8 *30:16 *314:11 0
*RES
1 io_in[36] *30:11 1.215 
2 *30:11 *30:13 285.75 
3 *30:13 *30:15 4.5 
4 *30:15 *30:16 154.35 
5 *30:16 *419:io_in[36] 5.985 
*END

*D_NET *31 0.0936785
*CONN
*P io_in[37] I
*I *419:io_in[37] I *D wrapped_multiplier_8
*CAP
1 io_in[37] 0.000310538
2 *419:io_in[37] 0.00859311
3 *31:18 0.00859311
4 *31:16 0.028907
5 *31:15 0.028907
6 *31:13 0.00902864
7 *31:11 0.00933918
*RES
1 io_in[37] *31:11 2.835 
2 *31:11 *31:13 98.01 
3 *31:13 *31:15 4.5 
4 *31:15 *31:16 288.45 
5 *31:16 *31:18 4.5 
6 *31:18 *419:io_in[37] 90.765 
*END

*D_NET *32 0.352978
*CONN
*P io_in[3] I
*I *419:io_in[3] I *D wrapped_multiplier_8
*CAP
1 io_in[3] 0.000145659
2 *419:io_in[3] 0.000587619
3 *32:19 0.0163156
4 *32:18 0.0157279
5 *32:16 0.0172074
6 *32:15 0.0172074
7 *32:13 0.0403025
8 *32:11 0.0404481
9 *32:19 *61:13 0.0133665
10 *32:19 *72:14 0.143674
11 *32:19 *92:11 0.000264222
12 *32:19 *98:13 0.000419635
13 *32:19 *110:11 0.0473108
14 *419:io_in[27] *32:19 0
15 *7:12 *32:19 0
16 *24:19 *32:19 0
*RES
1 io_in[3] *32:11 1.575 
2 *32:11 *32:13 441.27 
3 *32:13 *32:15 4.5 
4 *32:15 *32:16 170.37 
5 *32:16 *32:18 4.5 
6 *32:18 *32:19 304.47 
7 *32:19 *419:io_in[3] 19.0174 
*END

*D_NET *33 0.132171
*CONN
*P io_in[4] I
*I *419:io_in[4] I *D wrapped_multiplier_8
*CAP
1 io_in[4] 0.001846
2 *419:io_in[4] 0.0604601
3 *33:10 0.0642397
4 *33:7 0.00562558
*RES
1 io_in[4] *33:7 24.525 
2 *33:7 *33:10 42.03 
3 *33:10 *419:io_in[4] 658.845 
*END

*D_NET *34 0.285644
*CONN
*P io_in[5] I
*I *419:io_in[5] I *D wrapped_multiplier_8
*CAP
1 io_in[5] 0.0510359
2 *419:io_in[5] 0.00120656
3 *34:5 0.0522424
4 *419:io_in[5] *60:8 0.00521694
5 *34:5 *48:9 0.000498653
6 *34:5 *48:11 0.175443
*RES
1 io_in[5] *34:5 671.625 
2 *34:5 *419:io_in[5] 23.895 
*END

*D_NET *35 0.189941
*CONN
*P io_in[6] I
*I *419:io_in[6] I *D wrapped_multiplier_8
*CAP
1 io_in[6] 0.000280649
2 *419:io_in[6] 0.00153865
3 *35:19 0.00378318
4 *35:18 0.00310185
5 *35:13 0.062343
6 *35:11 0.0617663
7 *419:io_in[6] *52:13 0
8 *35:18 *57:8 0.010127
9 *35:19 *38:15 0.030028
10 *14:16 *35:19 0.0169724
*RES
1 io_in[6] *35:11 2.655 
2 *35:11 *35:13 669.15 
3 *35:13 *35:18 23.85 
4 *35:18 *35:19 54.27 
5 *35:19 *419:io_in[6] 27.5204 
*END

*D_NET *36 0.549444
*CONN
*P io_in[7] I
*I *419:io_in[7] I *D wrapped_multiplier_8
*CAP
1 io_in[7] 0.000904723
2 *419:io_in[7] 8.3608e-05
3 *36:11 0.035064
4 *36:10 0.0349804
5 *36:8 0.0150351
6 *36:7 0.0159398
7 *36:11 io_oeb[4] 0.447436
*RES
1 io_in[7] *36:7 13.725 
2 *36:7 *36:8 150.03 
3 *36:8 *36:10 4.5 
4 *36:10 *36:11 669.69 
5 *36:11 *419:io_in[7] 0.945 
*END

*D_NET *37 0.458689
*CONN
*P io_in[8] I
*I *419:io_in[8] I *D wrapped_multiplier_8
*CAP
1 io_in[8] 0.000145659
2 *419:io_in[8] 0.000974209
3 *37:19 0.0421461
4 *37:18 0.0411719
5 *37:16 0.0147498
6 *37:15 0.0147498
7 *37:13 0.00509727
8 *37:11 0.00524293
9 *37:19 *97:13 0
10 *419:io_in[13] *37:19 0
11 *9:16 *37:19 0.334411
*RES
1 io_in[8] *37:11 1.575 
2 *37:11 *37:13 55.17 