*SPEF "ieee 1481-1999"
*DESIGN "wrapped_multiplier_8"
*DATE "11:11:11 Fri 11 11, 1111"
*VENDOR "OpenRCX"
*PROGRAM "Parallel Extraction"
*VERSION "1.0"
*DESIGN_FLOW "NAME_SCOPE LOCAL" "PIN_CAP NONE"
*DIVIDER /
*DELIMITER :
*BUS_DELIMITER []
*T_UNIT 1 NS
*C_UNIT 1 PF
*R_UNIT 1 OHM
*L_UNIT 1 HENRY

*NAME_MAP
*1 io_in[0]
*2 io_in[10]
*3 io_in[11]
*4 io_in[12]
*5 io_in[13]
*6 io_in[14]
*7 io_in[15]
*8 io_in[16]
*9 io_in[17]
*10 io_in[18]
*11 io_in[19]
*12 io_in[1]
*13 io_in[20]
*14 io_in[21]
*15 io_in[22]
*16 io_in[23]
*17 io_in[24]
*18 io_in[25]
*19 io_in[26]
*20 io_in[27]
*21 io_in[28]
*22 io_in[29]
*23 io_in[2]
*24 io_in[30]
*25 io_in[31]
*26 io_in[32]
*27 io_in[33]
*28 io_in[34]
*29 io_in[35]
*30 io_in[36]
*31 io_in[37]
*32 io_in[3]
*33 io_in[4]
*34 io_in[5]
*35 io_in[6]
*36 io_in[7]
*37 io_in[8]
*38 io_in[9]
*39 net1
*40 net65
*41 net66
*42 net67
*43 net68
*44 net69
*45 net70
*46 net71
*47 net72
*48 net73
*49 net74
*50 net2
*51 net75
*52 net76
*53 net7
*54 net8
*55 net9
*56 net10
*57 net11
*58 net12
*59 net13
*60 net14
*61 net3
*62 net15
*63 net16
*64 net17
*65 net18
*66 net19
*67 net20
*68 net21
*69 net22
*70 net4
*71 net5
*72 net6
*73 net61
*74 net62
*75 net63
*76 net64
*77 net23
*78 net33
*79 net34
*80 net35
*81 net36
*82 net37
*83 net38
*84 net39
*85 net40
*86 net41
*87 net42
*88 net24
*89 net43
*90 net44
*91 net45
*92 net46
*93 net47
*94 net48
*95 net49
*96 net50
*97 net51
*98 net52
*99 net25
*100 net53
*101 net54
*102 net55
*103 net56
*104 net57
*105 net58
*106 net59
*107 net60
*108 net26
*109 net27
*110 net28
*111 net29
*112 net30
*113 net31
*114 net32
*117 wb_clk_i
*118 wb_rst_i
*119 FILLER_0_101
*120 FILLER_0_107
*121 FILLER_0_11
*122 FILLER_0_139
*123 FILLER_0_142
*124 FILLER_0_150
*125 FILLER_0_155
*126 FILLER_0_17
*127 FILLER_0_171
*128 FILLER_0_177
*129 FILLER_0_182
*130 FILLER_0_198
*131 FILLER_0_2
*132 FILLER_0_206
*133 FILLER_0_212
*134 FILLER_0_217
*135 FILLER_0_225
*136 FILLER_0_233
*137 FILLER_0_241
*138 FILLER_0_247
*139 FILLER_0_252
*140 FILLER_0_260
*141 FILLER_0_264
*142 FILLER_0_269
*143 FILLER_0_277
*144 FILLER_0_279
*145 FILLER_0_282
*146 FILLER_0_287
*147 FILLER_0_29
*148 FILLER_0_295
*149 FILLER_0_299
*150 FILLER_0_305
*151 FILLER_0_313
*152 FILLER_0_317
*153 FILLER_0_33
*154 FILLER_0_333
*155 FILLER_0_341
*156 FILLER_0_349
*157 FILLER_0_352
*158 FILLER_0_360
*159 FILLER_0_365
*160 FILLER_0_37
*161 FILLER_0_373
*162 FILLER_0_377
*163 FILLER_0_383
*164 FILLER_0_387
*165 FILLER_0_395
*166 FILLER_0_401
*167 FILLER_0_409
*168 FILLER_0_41
*169 FILLER_0_413
*170 FILLER_0_419
*171 FILLER_0_422
*172 FILLER_0_430
*173 FILLER_0_432
*174 FILLER_0_437
*175 FILLER_0_453
*176 FILLER_0_457
*177 FILLER_0_462
*178 FILLER_0_466
*179 FILLER_0_468
*180 FILLER_0_47
*181 FILLER_0_473
*182 FILLER_0_489
*183 FILLER_0_492
*184 FILLER_0_497
*185 FILLER_0_501
*186 FILLER_0_503
*187 FILLER_0_508
*188 FILLER_0_55
*189 FILLER_0_59
*190 FILLER_0_6
*191 FILLER_0_65
*192 FILLER_0_69
*193 FILLER_0_72
*194 FILLER_0_76
*195 FILLER_0_78
*196 FILLER_0_83
*197 FILLER_0_91
*198 FILLER_0_95
*199 FILLER_10_101
*200 FILLER_10_105
*201 FILLER_10_108
*202 FILLER_10_172
*203 FILLER_10_176
*204 FILLER_10_179
*205 FILLER_10_2
*206 FILLER_10_243
*207 FILLER_10_247
*208 FILLER_10_250
*209 FILLER_10_314
*210 FILLER_10_318
*211 FILLER_10_321
*212 FILLER_10_34
*213 FILLER_10_37
*214 FILLER_10_385
*215 FILLER_10_389
*216 FILLER_10_392
*217 FILLER_10_456
*218 FILLER_10_460
*219 FILLER_10_463
*220 FILLER_10_495
*221 FILLER_10_503
*222 FILLER_10_507
*223 FILLER_11_137
*224 FILLER_11_141
*225 FILLER_11_144
*226 FILLER_11_2
*227 FILLER_11_208
*228 FILLER_11_212
*229 FILLER_11_215
*230 FILLER_11_279
*231 FILLER_11_283
*232 FILLER_11_286
*233 FILLER_11_350
*234 FILLER_11_354
*235 FILLER_11_357
*236 FILLER_11_421
*237 FILLER_11_425
*238 FILLER_11_428
*239 FILLER_11_492
*240 FILLER_11_496
*241 FILLER_11_499
*242 FILLER_11_507
*243 FILLER_11_66
*244 FILLER_11_70
*245 FILLER_11_73
*246 FILLER_12_101
*247 FILLER_12_105
*248 FILLER_12_108
*249 FILLER_12_172
*250 FILLER_12_176
*251 FILLER_12_179
*252 FILLER_12_2
*253 FILLER_12_23
*254 FILLER_12_243
*255 FILLER_12_247
*256 FILLER_12_250
*257 FILLER_12_31
*258 FILLER_12_314
*259 FILLER_12_318
*260 FILLER_12_321
*261 FILLER_12_37
*262 FILLER_12_385
*263 FILLER_12_389
*264 FILLER_12_392
*265 FILLER_12_456
*266 FILLER_12_460
*267 FILLER_12_463
*268 FILLER_12_495
*269 FILLER_12_503
*270 FILLER_12_508
*271 FILLER_12_7
*272 FILLER_13_137
*273 FILLER_13_141
*274 FILLER_13_144
*275 FILLER_13_2
*276 FILLER_13_208
*277 FILLER_13_212
*278 FILLER_13_215
*279 FILLER_13_279
*280 FILLER_13_283
*281 FILLER_13_286
*282 FILLER_13_350
*283 FILLER_13_354
*284 FILLER_13_357
*285 FILLER_13_421
*286 FILLER_13_425
*287 FILLER_13_428
*288 FILLER_13_492
*289 FILLER_13_496
*290 FILLER_13_499
*291 FILLER_13_507
*292 FILLER_13_66
*293 FILLER_13_70
*294 FILLER_13_73
*295 FILLER_14_101
*296 FILLER_14_105
*297 FILLER_14_108
*298 FILLER_14_172
*299 FILLER_14_176
*300 FILLER_14_179
*301 FILLER_14_2
*302 FILLER_14_23
*303 FILLER_14_243
*304 FILLER_14_247
*305 FILLER_14_250
*306 FILLER_14_31
*307 FILLER_14_314
*308 FILLER_14_318
*309 FILLER_14_321
*310 FILLER_14_37
*311 FILLER_14_385
*312 FILLER_14_389
*313 FILLER_14_392
*314 FILLER_14_456
*315 FILLER_14_460
*316 FILLER_14_463
*317 FILLER_14_495
*318 FILLER_14_503
*319 FILLER_14_507
*320 FILLER_14_7
*321 FILLER_15_137
*322 FILLER_15_141
*323 FILLER_15_144
*324 FILLER_15_2
*325 FILLER_15_208
*326 FILLER_15_212
*327 FILLER_15_215
*328 FILLER_15_279
*329 FILLER_15_283
*330 FILLER_15_286
*331 FILLER_15_350
*332 FILLER_15_354
*333 FILLER_15_357
*334 FILLER_15_421
*335 FILLER_15_425
*336 FILLER_15_428
*337 FILLER_15_492
*338 FILLER_15_496
*339 FILLER_15_499
*340 FILLER_15_507
*341 FILLER_15_66
*342 FILLER_15_70
*343 FILLER_15_73
*344 FILLER_16_101
*345 FILLER_16_105
*346 FILLER_16_108
*347 FILLER_16_172
*348 FILLER_16_176
*349 FILLER_16_179
*350 FILLER_16_2
*351 FILLER_16_243
*352 FILLER_16_247
*353 FILLER_16_250
*354 FILLER_16_314
*355 FILLER_16_318
*356 FILLER_16_321
*357 FILLER_16_34
*358 FILLER_16_37
*359 FILLER_16_385
*360 FILLER_16_389
*361 FILLER_16_392
*362 FILLER_16_456
*363 FILLER_16_460
*364 FILLER_16_463
*365 FILLER_16_495
*366 FILLER_16_503
*367 FILLER_16_507
*368 FILLER_17_137
*369 FILLER_17_141
*370 FILLER_17_144
*371 FILLER_17_2
*372 FILLER_17_208
*373 FILLER_17_212
*374 FILLER_17_215
*375 FILLER_17_279
*376 FILLER_17_283
*377 FILLER_17_286
*378 FILLER_17_350
*379 FILLER_17_354
*380 FILLER_17_357
*381 FILLER_17_421
*382 FILLER_17_425
*383 FILLER_17_428
*384 FILLER_17_492
*385 FILLER_17_496
*386 FILLER_17_499
*387 FILLER_17_503
*388 FILLER_17_508
*389 FILLER_17_7
*390 FILLER_17_73
*391 FILLER_18_101
*392 FILLER_18_105
*393 FILLER_18_108
*394 FILLER_18_172
*395 FILLER_18_176
*396 FILLER_18_179
*397 FILLER_18_2
*398 FILLER_18_243
*399 FILLER_18_247
*400 FILLER_18_250
*401 FILLER_18_314
*402 FILLER_18_318
*403 FILLER_18_321
*404 FILLER_18_34
*405 FILLER_18_37
*406 FILLER_18_385
*407 FILLER_18_389
*408 FILLER_18_392
*409 FILLER_18_456
*410 FILLER_18_460
*411 FILLER_18_463
*412 FILLER_18_495
*413 FILLER_18_503
*414 FILLER_18_507
*415 FILLER_19_137
*416 FILLER_19_141
*417 FILLER_19_144
*418 FILLER_19_2
*419 FILLER_19_208
*420 FILLER_19_212
*421 FILLER_19_215
*422 FILLER_19_279
*423 FILLER_19_283
*424 FILLER_19_286
*425 FILLER_19_350
*426 FILLER_19_354
*427 FILLER_19_357
*428 FILLER_19_421
*429 FILLER_19_425
*430 FILLER_19_428
*431 FILLER_19_492
*432 FILLER_19_496
*433 FILLER_19_499
*434 FILLER_19_507
*435 FILLER_19_7
*436 FILLER_19_73
*437 FILLER_1_13
*438 FILLER_1_137
*439 FILLER_1_141
*440 FILLER_1_144
*441 FILLER_1_2
*442 FILLER_1_208
*443 FILLER_1_212
*444 FILLER_1_215
*445 FILLER_1_279
*446 FILLER_1_283
*447 FILLER_1_286
*448 FILLER_1_350
*449 FILLER_1_354
*450 FILLER_1_357
*451 FILLER_1_421
*452 FILLER_1_425
*453 FILLER_1_428
*454 FILLER_1_45
*455 FILLER_1_492
*456 FILLER_1_496
*457 FILLER_1_499
*458 FILLER_1_503
*459 FILLER_1_508
*460 FILLER_1_61
*461 FILLER_1_69
*462 FILLER_1_7
*463 FILLER_1_73
*464 FILLER_20_101
*465 FILLER_20_105
*466 FILLER_20_108
*467 FILLER_20_172
*468 FILLER_20_176
*469 FILLER_20_179
*470 FILLER_20_2
*471 FILLER_20_243
*472 FILLER_20_247
*473 FILLER_20_250
*474 FILLER_20_314
*475 FILLER_20_318
*476 FILLER_20_321
*477 FILLER_20_34
*478 FILLER_20_37
*479 FILLER_20_385
*480 FILLER_20_389
*481 FILLER_20_392
*482 FILLER_20_456
*483 FILLER_20_460
*484 FILLER_20_463
*485 FILLER_20_495
*486 FILLER_20_503
*487 FILLER_20_507
*488 FILLER_21_137
*489 FILLER_21_141
*490 FILLER_21_144
*491 FILLER_21_2
*492 FILLER_21_208
*493 FILLER_21_212
*494 FILLER_21_215
*495 FILLER_21_279
*496 FILLER_21_283
*497 FILLER_21_286
*498 FILLER_21_350
*499 FILLER_21_354
*500 FILLER_21_357
*501 FILLER_21_421
*502 FILLER_21_425
*503 FILLER_21_428
*504 FILLER_21_492
*505 FILLER_21_496
*506 FILLER_21_499
*507 FILLER_21_507
*508 FILLER_21_66
*509 FILLER_21_70
*510 FILLER_21_73
*511 FILLER_22_101
*512 FILLER_22_105
*513 FILLER_22_108
*514 FILLER_22_172
*515 FILLER_22_176
*516 FILLER_22_179
*517 FILLER_22_2
*518 FILLER_22_243
*519 FILLER_22_247
*520 FILLER_22_250
*521 FILLER_22_314
*522 FILLER_22_318
*523 FILLER_22_321
*524 FILLER_22_34
*525 FILLER_22_37
*526 FILLER_22_385
*527 FILLER_22_389
*528 FILLER_22_392
*529 FILLER_22_456
*530 FILLER_22_460
*531 FILLER_22_463
*532 FILLER_22_495
*533 FILLER_22_503
*534 FILLER_22_507
*535 FILLER_23_137
*536 FILLER_23_141
*537 FILLER_23_144
*538 FILLER_23_2
*539 FILLER_23_208
*540 FILLER_23_212
*541 FILLER_23_215
*542 FILLER_23_279
*543 FILLER_23_283
*544 FILLER_23_286
*545 FILLER_23_350
*546 FILLER_23_354
*547 FILLER_23_357
*548 FILLER_23_421
*549 FILLER_23_425
*550 FILLER_23_428
*551 FILLER_23_492
*552 FILLER_23_496
*553 FILLER_23_499
*554 FILLER_23_507
*555 FILLER_23_7
*556 FILLER_23_73
*557 FILLER_24_101
*558 FILLER_24_105
*559 FILLER_24_108
*560 FILLER_24_172
*561 FILLER_24_176
*562 FILLER_24_179
*563 FILLER_24_2
*564 FILLER_24_243
*565 FILLER_24_247
*566 FILLER_24_250
*567 FILLER_24_314
*568 FILLER_24_318
*569 FILLER_24_321
*570 FILLER_24_34
*571 FILLER_24_37
*572 FILLER_24_385
*573 FILLER_24_389
*574 FILLER_24_392
*575 FILLER_24_456
*576 FILLER_24_460
*577 FILLER_24_463
*578 FILLER_24_495
*579 FILLER_24_503
*580 FILLER_24_507
*581 FILLER_25_137
*582 FILLER_25_141
*583 FILLER_25_144
*584 FILLER_25_2
*585 FILLER_25_208
*586 FILLER_25_212
*587 FILLER_25_215
*588 FILLER_25_279
*589 FILLER_25_283
*590 FILLER_25_286
*591 FILLER_25_350
*592 FILLER_25_354
*593 FILLER_25_357
*594 FILLER_25_421
*595 FILLER_25_425
*596 FILLER_25_428
*597 FILLER_25_492
*598 FILLER_25_496
*599 FILLER_25_499
*600 FILLER_25_503
*601 FILLER_25_508
*602 FILLER_25_7
*603 FILLER_25_73
*604 FILLER_26_101
*605 FILLER_26_105
*606 FILLER_26_108
*607 FILLER_26_172
*608 FILLER_26_176
*609 FILLER_26_179
*610 FILLER_26_2
*611 FILLER_26_243
*612 FILLER_26_247
*613 FILLER_26_250
*614 FILLER_26_314
*615 FILLER_26_318
*616 FILLER_26_321
*617 FILLER_26_34
*618 FILLER_26_37
*619 FILLER_26_385
*620 FILLER_26_389
*621 FILLER_26_392
*622 FILLER_26_456
*623 FILLER_26_460
*624 FILLER_26_463
*625 FILLER_26_495
*626 FILLER_26_503
*627 FILLER_26_507
*628 FILLER_27_137
*629 FILLER_27_141
*630 FILLER_27_144
*631 FILLER_27_2
*632 FILLER_27_208
*633 FILLER_27_212
*634 FILLER_27_215
*635 FILLER_27_279
*636 FILLER_27_283
*637 FILLER_27_286
*638 FILLER_27_350
*639 FILLER_27_354
*640 FILLER_27_357
*641 FILLER_27_421
*642 FILLER_27_425
*643 FILLER_27_428
*644 FILLER_27_492
*645 FILLER_27_496
*646 FILLER_27_499
*647 FILLER_27_507
*648 FILLER_27_66
*649 FILLER_27_70
*650 FILLER_27_73
*651 FILLER_28_101
*652 FILLER_28_105
*653 FILLER_28_108
*654 FILLER_28_172
*655 FILLER_28_176
*656 FILLER_28_179
*657 FILLER_28_2
*658 FILLER_28_23
*659 FILLER_28_243
*660 FILLER_28_247
*661 FILLER_28_250
*662 FILLER_28_31
*663 FILLER_28_314
*664 FILLER_28_318
*665 FILLER_28_321
*666 FILLER_28_37
*667 FILLER_28_385
*668 FILLER_28_389
*669 FILLER_28_392
*670 FILLER_28_456
*671 FILLER_28_460
*672 FILLER_28_463
*673 FILLER_28_495
*674 FILLER_28_503
*675 FILLER_28_507
*676 FILLER_28_7
*677 FILLER_29_137
*678 FILLER_29_141
*679 FILLER_29_144
*680 FILLER_29_2
*681 FILLER_29_208
*682 FILLER_29_212
*683 FILLER_29_215
*684 FILLER_29_279
*685 FILLER_29_283
*686 FILLER_29_286
*687 FILLER_29_350
*688 FILLER_29_354
*689 FILLER_29_357
*690 FILLER_29_421
*691 FILLER_29_425
*692 FILLER_29_428
*693 FILLER_29_492
*694 FILLER_29_496
*695 FILLER_29_499
*696 FILLER_29_507
*697 FILLER_29_66
*698 FILLER_29_70
*699 FILLER_29_73
*700 FILLER_2_101
*701 FILLER_2_105
*702 FILLER_2_108
*703 FILLER_2_172
*704 FILLER_2_176
*705 FILLER_2_179
*706 FILLER_2_2
*707 FILLER_2_243
*708 FILLER_2_247
*709 FILLER_2_250
*710 FILLER_2_314
*711 FILLER_2_318
*712 FILLER_2_321
*713 FILLER_2_34
*714 FILLER_2_37
*715 FILLER_2_385
*716 FILLER_2_389
*717 FILLER_2_392
*718 FILLER_2_456
*719 FILLER_2_460
*720 FILLER_2_463
*721 FILLER_2_495
*722 FILLER_2_503
*723 FILLER_2_507
*724 FILLER_30_101
*725 FILLER_30_105
*726 FILLER_30_108
*727 FILLER_30_172
*728 FILLER_30_176
*729 FILLER_30_179
*730 FILLER_30_2
*731 FILLER_30_23
*732 FILLER_30_243
*733 FILLER_30_247
*734 FILLER_30_250
*735 FILLER_30_31
*736 FILLER_30_314
*737 FILLER_30_318
*738 FILLER_30_321
*739 FILLER_30_37
*740 FILLER_30_385
*741 FILLER_30_389
*742 FILLER_30_392
*743 FILLER_30_456
*744 FILLER_30_460
*745 FILLER_30_463
*746 FILLER_30_495
*747 FILLER_30_503
*748 FILLER_30_507
*749 FILLER_30_7
*750 FILLER_31_137
*751 FILLER_31_141
*752 FILLER_31_144
*753 FILLER_31_2
*754 FILLER_31_208
*755 FILLER_31_212
*756 FILLER_31_215
*757 FILLER_31_279
*758 FILLER_31_283
*759 FILLER_31_286
*760 FILLER_31_350
*761 FILLER_31_354
*762 FILLER_31_357
*763 FILLER_31_421
*764 FILLER_31_425
*765 FILLER_31_428
*766 FILLER_31_492
*767 FILLER_31_496
*768 FILLER_31_499
*769 FILLER_31_507
*770 FILLER_31_66
*771 FILLER_31_70
*772 FILLER_31_73
*773 FILLER_32_101
*774 FILLER_32_105
*775 FILLER_32_108
*776 FILLER_32_172
*777 FILLER_32_176
*778 FILLER_32_179
*779 FILLER_32_2
*780 FILLER_32_243
*781 FILLER_32_247
*782 FILLER_32_250
*783 FILLER_32_314
*784 FILLER_32_318
*785 FILLER_32_321
*786 FILLER_32_34
*787 FILLER_32_37
*788 FILLER_32_385
*789 FILLER_32_389
*790 FILLER_32_392
*791 FILLER_32_456
*792 FILLER_32_460
*793 FILLER_32_463
*794 FILLER_32_495
*795 FILLER_32_503
*796 FILLER_32_507
*797 FILLER_33_137
*798 FILLER_33_141
*799 FILLER_33_144
*800 FILLER_33_2
*801 FILLER_33_208
*802 FILLER_33_212
*803 FILLER_33_215
*804 FILLER_33_279
*805 FILLER_33_283
*806 FILLER_33_286
*807 FILLER_33_350
*808 FILLER_33_354
*809 FILLER_33_357
*810 FILLER_33_421
*811 FILLER_33_425
*812 FILLER_33_428
*813 FILLER_33_492
*814 FILLER_33_496
*815 FILLER_33_499
*816 FILLER_33_507
*817 FILLER_33_7
*818 FILLER_33_73
*819 FILLER_34_101
*820 FILLER_34_105
*821 FILLER_34_108
*822 FILLER_34_172
*823 FILLER_34_176
*824 FILLER_34_179
*825 FILLER_34_2
*826 FILLER_34_243
*827 FILLER_34_247
*828 FILLER_34_250
*829 FILLER_34_314
*830 FILLER_34_318
*831 FILLER_34_321
*832 FILLER_34_34
*833 FILLER_34_37
*834 FILLER_34_385
*835 FILLER_34_389
*836 FILLER_34_392
*837 FILLER_34_456
*838 FILLER_34_460
*839 FILLER_34_463
*840 FILLER_34_495
*841 FILLER_34_503
*842 FILLER_34_507
*843 FILLER_35_137
*844 FILLER_35_141
*845 FILLER_35_144
*846 FILLER_35_2
*847 FILLER_35_208
*848 FILLER_35_212
*849 FILLER_35_215
*850 FILLER_35_279
*851 FILLER_35_283
*852 FILLER_35_286
*853 FILLER_35_350
*854 FILLER_35_354
*855 FILLER_35_357
*856 FILLER_35_421
*857 FILLER_35_425
*858 FILLER_35_428
*859 FILLER_35_492
*860 FILLER_35_496
*861 FILLER_35_499
*862 FILLER_35_507
*863 FILLER_35_66
*864 FILLER_35_70
*865 FILLER_35_73
*866 FILLER_36_101
*867 FILLER_36_105
*868 FILLER_36_108
*869 FILLER_36_172
*870 FILLER_36_176
*871 FILLER_36_179
*872 FILLER_36_2
*873 FILLER_36_23
*874 FILLER_36_243
*875 FILLER_36_247
*876 FILLER_36_250
*877 FILLER_36_31
*878 FILLER_36_314
*879 FILLER_36_318
*880 FILLER_36_321
*881 FILLER_36_37
*882 FILLER_36_385
*883 FILLER_36_389
*884 FILLER_36_392
*885 FILLER_36_456
*886 FILLER_36_460
*887 FILLER_36_463
*888 FILLER_36_495
*889 FILLER_36_503
*890 FILLER_36_507
*891 FILLER_36_7
*892 FILLER_37_137
*893 FILLER_37_141
*894 FILLER_37_144
*895 FILLER_37_2
*896 FILLER_37_208
*897 FILLER_37_212
*898 FILLER_37_215
*899 FILLER_37_279
*900 FILLER_37_283
*901 FILLER_37_286
*902 FILLER_37_350
*903 FILLER_37_354
*904 FILLER_37_357
*905 FILLER_37_421
*906 FILLER_37_425
*907 FILLER_37_428
*908 FILLER_37_492
*909 FILLER_37_496
*910 FILLER_37_499
*911 FILLER_37_507
*912 FILLER_37_66
*913 FILLER_37_70
*914 FILLER_37_73
*915 FILLER_38_101
*916 FILLER_38_105
*917 FILLER_38_108
*918 FILLER_38_172
*919 FILLER_38_176
*920 FILLER_38_179
*921 FILLER_38_2
*922 FILLER_38_243
*923 FILLER_38_247
*924 FILLER_38_250
*925 FILLER_38_314
*926 FILLER_38_318
*927 FILLER_38_321
*928 FILLER_38_34
*929 FILLER_38_37
*930 FILLER_38_385
*931 FILLER_38_389
*932 FILLER_38_392
*933 FILLER_38_456
*934 FILLER_38_460
*935 FILLER_38_463
*936 FILLER_38_495
*937 FILLER_38_503
*938 FILLER_38_507
*939 FILLER_39_137
*940 FILLER_39_141
*941 FILLER_39_144
*942 FILLER_39_2
*943 FILLER_39_208
*944 FILLER_39_212
*945 FILLER_39_215
*946 FILLER_39_279
*947 FILLER_39_283
*948 FILLER_39_286
*949 FILLER_39_350
*950 FILLER_39_354
*951 FILLER_39_357
*952 FILLER_39_421
*953 FILLER_39_425
*954 FILLER_39_428
*955 FILLER_39_492
*956 FILLER_39_496
*957 FILLER_39_499
*958 FILLER_39_507
*959 FILLER_39_66
*960 FILLER_39_70
*961 FILLER_39_73
*962 FILLER_3_137
*963 FILLER_3_141
*964 FILLER_3_144
*965 FILLER_3_2
*966 FILLER_3_208
*967 FILLER_3_212
*968 FILLER_3_215
*969 FILLER_3_279
*970 FILLER_3_283
*971 FILLER_3_286
*972 FILLER_3_350
*973 FILLER_3_354
*974 FILLER_3_357
*975 FILLER_3_421
*976 FILLER_3_425
*977 FILLER_3_428
*978 FILLER_3_492
*979 FILLER_3_496
*980 FILLER_3_499
*981 FILLER_3_507
*982 FILLER_3_66
*983 FILLER_3_70
*984 FILLER_3_73
*985 FILLER_40_101
*986 FILLER_40_105
*987 FILLER_40_108
*988 FILLER_40_172
*989 FILLER_40_176
*990 FILLER_40_179
*991 FILLER_40_2
*992 FILLER_40_243
*993 FILLER_40_247
*994 FILLER_40_250
*995 FILLER_40_314
*996 FILLER_40_318
*997 FILLER_40_321
*998 FILLER_40_34
*999 FILLER_40_37
*1000 FILLER_40_385
*1001 FILLER_40_389
*1002 FILLER_40_392
*1003 FILLER_40_456
*1004 FILLER_40_460
*1005 FILLER_40_463
*1006 FILLER_40_495
*1007 FILLER_40_503
*1008 FILLER_40_507
*1009 FILLER_41_137
*1010 FILLER_41_141
*1011 FILLER_41_144
*1012 FILLER_41_2
*1013 FILLER_41_208
*1014 FILLER_41_212
*1015 FILLER_41_215
*1016 FILLER_41_279
*1017 FILLER_41_283
*1018 FILLER_41_286
*1019 FILLER_41_350
*1020 FILLER_41_354
*1021 FILLER_41_357
*1022 FILLER_41_421
*1023 FILLER_41_425
*1024 FILLER_41_428
*1025 FILLER_41_492
*1026 FILLER_41_496
*1027 FILLER_41_499
*1028 FILLER_41_503
*1029 FILLER_41_508
*1030 FILLER_41_66
*1031 FILLER_41_70
*1032 FILLER_41_73
*1033 FILLER_42_101
*1034 FILLER_42_105
*1035 FILLER_42_108
*1036 FILLER_42_172
*1037 FILLER_42_176
*1038 FILLER_42_179
*1039 FILLER_42_2
*1040 FILLER_42_243
*1041 FILLER_42_247
*1042 FILLER_42_250
*1043 FILLER_42_314
*1044 FILLER_42_318
*1045 FILLER_42_321
*1046 FILLER_42_34
*1047 FILLER_42_37
*1048 FILLER_42_385
*1049 FILLER_42_389
*1050 FILLER_42_392
*1051 FILLER_42_456
*1052 FILLER_42_460
*1053 FILLER_42_463
*1054 FILLER_42_495
*1055 FILLER_42_503
*1056 FILLER_42_507
*1057 FILLER_43_137
*1058 FILLER_43_141
*1059 FILLER_43_144
*1060 FILLER_43_2
*1061 FILLER_43_208
*1062 FILLER_43_212
*1063 FILLER_43_215
*1064 FILLER_43_279
*1065 FILLER_43_283
*1066 FILLER_43_286
*1067 FILLER_43_350
*1068 FILLER_43_354
*1069 FILLER_43_357
*1070 FILLER_43_421
*1071 FILLER_43_425
*1072 FILLER_43_428
*1073 FILLER_43_492
*1074 FILLER_43_496
*1075 FILLER_43_499
*1076 FILLER_43_503
*1077 FILLER_43_508
*1078 FILLER_43_66
*1079 FILLER_43_70
*1080 FILLER_43_73
*1081 FILLER_44_101
*1082 FILLER_44_105
*1083 FILLER_44_108
*1084 FILLER_44_172
*1085 FILLER_44_176
*1086 FILLER_44_179
*1087 FILLER_44_2
*1088 FILLER_44_243
*1089 FILLER_44_247
*1090 FILLER_44_250
*1091 FILLER_44_314
*1092 FILLER_44_318
*1093 FILLER_44_321
*1094 FILLER_44_34
*1095 FILLER_44_37
*1096 FILLER_44_385
*1097 FILLER_44_389
*1098 FILLER_44_392
*1099 FILLER_44_456
*1100 FILLER_44_460
*1101 FILLER_44_463
*1102 FILLER_44_495
*1103 FILLER_44_503
*1104 FILLER_44_507
*1105 FILLER_45_137
*1106 FILLER_45_141
*1107 FILLER_45_144
*1108 FILLER_45_2
*1109 FILLER_45_208
*1110 FILLER_45_212
*1111 FILLER_45_215
*1112 FILLER_45_279
*1113 FILLER_45_283
*1114 FILLER_45_286
*1115 FILLER_45_350
*1116 FILLER_45_354
*1117 FILLER_45_357
*1118 FILLER_45_421
*1119 FILLER_45_425
*1120 FILLER_45_428
*1121 FILLER_45_492
*1122 FILLER_45_496
*1123 FILLER_45_499
*1124 FILLER_45_507
*1125 FILLER_45_66
*1126 FILLER_45_70
*1127 FILLER_45_73
*1128 FILLER_46_101
*1129 FILLER_46_105
*1130 FILLER_46_108
*1131 FILLER_46_172
*1132 FILLER_46_176
*1133 FILLER_46_179
*1134 FILLER_46_2
*1135 FILLER_46_23
*1136 FILLER_46_243
*1137 FILLER_46_247
*1138 FILLER_46_250
*1139 FILLER_46_31
*1140 FILLER_46_314
*1141 FILLER_46_318
*1142 FILLER_46_321
*1143 FILLER_46_37
*1144 FILLER_46_385
*1145 FILLER_46_389
*1146 FILLER_46_392
*1147 FILLER_46_456
*1148 FILLER_46_460
*1149 FILLER_46_463
*1150 FILLER_46_495
*1151 FILLER_46_503
*1152 FILLER_46_508
*1153 FILLER_46_7
*1154 FILLER_47_137
*1155 FILLER_47_141
*1156 FILLER_47_144
*1157 FILLER_47_2
*1158 FILLER_47_208
*1159 FILLER_47_212
*1160 FILLER_47_215
*1161 FILLER_47_279
*1162 FILLER_47_283
*1163 FILLER_47_286
*1164 FILLER_47_350
*1165 FILLER_47_354
*1166 FILLER_47_357
*1167 FILLER_47_421
*1168 FILLER_47_425
*1169 FILLER_47_428
*1170 FILLER_47_492
*1171 FILLER_47_496
*1172 FILLER_47_499
*1173 FILLER_47_507
*1174 FILLER_47_66
*1175 FILLER_47_70
*1176 FILLER_47_73
*1177 FILLER_48_101
*1178 FILLER_48_105
*1179 FILLER_48_108
*1180 FILLER_48_172
*1181 FILLER_48_176
*1182 FILLER_48_179
*1183 FILLER_48_2
*1184 FILLER_48_243
*1185 FILLER_48_247
*1186 FILLER_48_250
*1187 FILLER_48_314
*1188 FILLER_48_318
*1189 FILLER_48_321
*1190 FILLER_48_34
*1191 FILLER_48_37
*1192 FILLER_48_385
*1193 FILLER_48_389
*1194 FILLER_48_392
*1195 FILLER_48_456
*1196 FILLER_48_460
*1197 FILLER_48_463
*1198 FILLER_48_495
*1199 FILLER_48_503
*1200 FILLER_48_507
*1201 FILLER_49_137
*1202 FILLER_49_141
*1203 FILLER_49_144
*1204 FILLER_49_2
*1205 FILLER_49_208
*1206 FILLER_49_212
*1207 FILLER_49_215
*1208 FILLER_49_279
*1209 FILLER_49_283
*1210 FILLER_49_286
*1211 FILLER_49_350
*1212 FILLER_49_354
*1213 FILLER_49_357
*1214 FILLER_49_421
*1215 FILLER_49_425
*1216 FILLER_49_428
*1217 FILLER_49_492
*1218 FILLER_49_496
*1219 FILLER_49_499
*1220 FILLER_49_503
*1221 FILLER_49_508
*1222 FILLER_49_66
*1223 FILLER_49_70
*1224 FILLER_49_73
*1225 FILLER_4_101
*1226 FILLER_4_105
*1227 FILLER_4_108
*1228 FILLER_4_172
*1229 FILLER_4_176
*1230 FILLER_4_179
*1231 FILLER_4_2
*1232 FILLER_4_243
*1233 FILLER_4_247
*1234 FILLER_4_250
*1235 FILLER_4_314
*1236 FILLER_4_318
*1237 FILLER_4_321
*1238 FILLER_4_34
*1239 FILLER_4_37
*1240 FILLER_4_385
*1241 FILLER_4_389
*1242 FILLER_4_392
*1243 FILLER_4_456
*1244 FILLER_4_460
*1245 FILLER_4_463
*1246 FILLER_4_495
*1247 FILLER_4_503
*1248 FILLER_4_507
*1249 FILLER_50_101
*1250 FILLER_50_105
*1251 FILLER_50_108
*1252 FILLER_50_172
*1253 FILLER_50_176
*1254 FILLER_50_179
*1255 FILLER_50_2
*1256 FILLER_50_243
*1257 FILLER_50_247
*1258 FILLER_50_250
*1259 FILLER_50_314
*1260 FILLER_50_318
*1261 FILLER_50_321
*1262 FILLER_50_34
*1263 FILLER_50_37
*1264 FILLER_50_385
*1265 FILLER_50_389
*1266 FILLER_50_392
*1267 FILLER_50_456
*1268 FILLER_50_460
*1269 FILLER_50_463
*1270 FILLER_50_495
*1271 FILLER_50_503
*1272 FILLER_50_507
*1273 FILLER_51_137
*1274 FILLER_51_141
*1275 FILLER_51_144
*1276 FILLER_51_2
*1277 FILLER_51_208
*1278 FILLER_51_212
*1279 FILLER_51_215
*1280 FILLER_51_279
*1281 FILLER_51_283
*1282 FILLER_51_286
*1283 FILLER_51_350
*1284 FILLER_51_354
*1285 FILLER_51_357
*1286 FILLER_51_421
*1287 FILLER_51_425
*1288 FILLER_51_428
*1289 FILLER_51_492
*1290 FILLER_51_496
*1291 FILLER_51_499
*1292 FILLER_51_507
*1293 FILLER_51_66
*1294 FILLER_51_70
*1295 FILLER_51_73
*1296 FILLER_52_101
*1297 FILLER_52_105
*1298 FILLER_52_108
*1299 FILLER_52_172
*1300 FILLER_52_176
*1301 FILLER_52_179
*1302 FILLER_52_2
*1303 FILLER_52_23
*1304 FILLER_52_243
*1305 FILLER_52_247
*1306 FILLER_52_250
*1307 FILLER_52_31
*1308 FILLER_52_314
*1309 FILLER_52_318
*1310 FILLER_52_321
*1311 FILLER_52_37
*1312 FILLER_52_385
*1313 FILLER_52_389
*1314 FILLER_52_392
*1315 FILLER_52_456
*1316 FILLER_52_460
*1317 FILLER_52_463
*1318 FILLER_52_495
*1319 FILLER_52_503
*1320 FILLER_52_508
*1321 FILLER_52_7
*1322 FILLER_53_137
*1323 FILLER_53_141
*1324 FILLER_53_144
*1325 FILLER_53_2
*1326 FILLER_53_208
*1327 FILLER_53_212
*1328 FILLER_53_215
*1329 FILLER_53_279
*1330 FILLER_53_283
*1331 FILLER_53_286
*1332 FILLER_53_350
*1333 FILLER_53_354
*1334 FILLER_53_357
*1335 FILLER_53_421
*1336 FILLER_53_425
*1337 FILLER_53_428
*1338 FILLER_53_492
*1339 FILLER_53_496
*1340 FILLER_53_499
*1341 FILLER_53_507
*1342 FILLER_53_66
*1343 FILLER_53_70
*1344 FILLER_53_73
*1345 FILLER_54_101
*1346 FILLER_54_105
*1347 FILLER_54_108
*1348 FILLER_54_172
*1349 FILLER_54_176
*1350 FILLER_54_179
*1351 FILLER_54_2
*1352 FILLER_54_243
*1353 FILLER_54_247
*1354 FILLER_54_250
*1355 FILLER_54_314
*1356 FILLER_54_318
*1357 FILLER_54_321
*1358 FILLER_54_34
*1359 FILLER_54_37
*1360 FILLER_54_385
*1361 FILLER_54_389
*1362 FILLER_54_392
*1363 FILLER_54_456
*1364 FILLER_54_460
*1365 FILLER_54_463
*1366 FILLER_54_495
*1367 FILLER_54_503
*1368 FILLER_54_508
*1369 FILLER_55_137
*1370 FILLER_55_141
*1371 FILLER_55_144
*1372 FILLER_55_2
*1373 FILLER_55_208
*1374 FILLER_55_212
*1375 FILLER_55_215
*1376 FILLER_55_279
*1377 FILLER_55_283
*1378 FILLER_55_286
*1379 FILLER_55_350
*1380 FILLER_55_354
*1381 FILLER_55_357
*1382 FILLER_55_421
*1383 FILLER_55_425
*1384 FILLER_55_428
*1385 FILLER_55_492
*1386 FILLER_55_496
*1387 FILLER_55_499
*1388 FILLER_55_507
*1389 FILLER_55_66
*1390 FILLER_55_70
*1391 FILLER_55_73
*1392 FILLER_56_101
*1393 FILLER_56_105
*1394 FILLER_56_108
*1395 FILLER_56_172
*1396 FILLER_56_176
*1397 FILLER_56_179
*1398 FILLER_56_2
*1399 FILLER_56_243
*1400 FILLER_56_247
*1401 FILLER_56_250
*1402 FILLER_56_314
*1403 FILLER_56_318
*1404 FILLER_56_321
*1405 FILLER_56_34
*1406 FILLER_56_37
*1407 FILLER_56_385
*1408 FILLER_56_389
*1409 FILLER_56_392
*1410 FILLER_56_456
*1411 FILLER_56_460
*1412 FILLER_56_463
*1413 FILLER_56_495
*1414 FILLER_56_503
*1415 FILLER_56_507
*1416 FILLER_57_137
*1417 FILLER_57_141
*1418 FILLER_57_144
*1419 FILLER_57_2
*1420 FILLER_57_208
*1421 FILLER_57_212
*1422 FILLER_57_215
*1423 FILLER_57_279
*1424 FILLER_57_283
*1425 FILLER_57_286
*1426 FILLER_57_350
*1427 FILLER_57_354
*1428 FILLER_57_357
*1429 FILLER_57_421
*1430 FILLER_57_425
*1431 FILLER_57_428
*1432 FILLER_57_492
*1433 FILLER_57_496
*1434 FILLER_57_499
*1435 FILLER_57_503
*1436 FILLER_57_508
*1437 FILLER_57_7
*1438 FILLER_57_73
*1439 FILLER_58_101
*1440 FILLER_58_105
*1441 FILLER_58_108
*1442 FILLER_58_172
*1443 FILLER_58_176
*1444 FILLER_58_179
*1445 FILLER_58_2
*1446 FILLER_58_243
*1447 FILLER_58_247
*1448 FILLER_58_250
*1449 FILLER_58_314
*1450 FILLER_58_318
*1451 FILLER_58_321
*1452 FILLER_58_34
*1453 FILLER_58_37
*1454 FILLER_58_385
*1455 FILLER_58_389
*1456 FILLER_58_392
*1457 FILLER_58_456
*1458 FILLER_58_460
*1459 FILLER_58_463
*1460 FILLER_58_495
*1461 FILLER_58_503
*1462 FILLER_58_507
*1463 FILLER_59_137
*1464 FILLER_59_141
*1465 FILLER_59_144
*1466 FILLER_59_2
*1467 FILLER_59_208
*1468 FILLER_59_212
*1469 FILLER_59_215
*1470 FILLER_59_279
*1471 FILLER_59_283
*1472 FILLER_59_286
*1473 FILLER_59_350
*1474 FILLER_59_354
*1475 FILLER_59_357
*1476 FILLER_59_421
*1477 FILLER_59_425
*1478 FILLER_59_428
*1479 FILLER_59_492
*1480 FILLER_59_496
*1481 FILLER_59_499
*1482 FILLER_59_507
*1483 FILLER_59_66
*1484 FILLER_59_70
*1485 FILLER_59_73
*1486 FILLER_5_137
*1487 FILLER_5_141
*1488 FILLER_5_144
*1489 FILLER_5_2
*1490 FILLER_5_208
*1491 FILLER_5_212
*1492 FILLER_5_215
*1493 FILLER_5_279
*1494 FILLER_5_283
*1495 FILLER_5_286
*1496 FILLER_5_350
*1497 FILLER_5_354
*1498 FILLER_5_357
*1499 FILLER_5_421
*1500 FILLER_5_425
*1501 FILLER_5_428
*1502 FILLER_5_492
*1503 FILLER_5_496
*1504 FILLER_5_499
*1505 FILLER_5_507
*1506 FILLER_5_66
*1507 FILLER_5_70
*1508 FILLER_5_73
*1509 FILLER_60_101
*1510 FILLER_60_105
*1511 FILLER_60_108
*1512 FILLER_60_172
*1513 FILLER_60_176
*1514 FILLER_60_179
*1515 FILLER_60_2
*1516 FILLER_60_23
*1517 FILLER_60_243
*1518 FILLER_60_247
*1519 FILLER_60_250
*1520 FILLER_60_31
*1521 FILLER_60_314
*1522 FILLER_60_318
*1523 FILLER_60_321
*1524 FILLER_60_37
*1525 FILLER_60_385
*1526 FILLER_60_389
*1527 FILLER_60_392
*1528 FILLER_60_456
*1529 FILLER_60_460
*1530 FILLER_60_463
*1531 FILLER_60_495
*1532 FILLER_60_503
*1533 FILLER_60_508
*1534 FILLER_60_7
*1535 FILLER_61_137
*1536 FILLER_61_141
*1537 FILLER_61_144
*1538 FILLER_61_2
*1539 FILLER_61_208
*1540 FILLER_61_212
*1541 FILLER_61_215
*1542 FILLER_61_279
*1543 FILLER_61_283
*1544 FILLER_61_286
*1545 FILLER_61_350
*1546 FILLER_61_354
*1547 FILLER_61_357
*1548 FILLER_61_421
*1549 FILLER_61_425
*1550 FILLER_61_428
*1551 FILLER_61_492
*1552 FILLER_61_496
*1553 FILLER_61_499
*1554 FILLER_61_507
*1555 FILLER_61_66
*1556 FILLER_61_70
*1557 FILLER_61_73
*1558 FILLER_62_101
*1559 FILLER_62_105
*1560 FILLER_62_108
*1561 FILLER_62_172
*1562 FILLER_62_176
*1563 FILLER_62_179
*1564 FILLER_62_2
*1565 FILLER_62_243
*1566 FILLER_62_247
*1567 FILLER_62_250
*1568 FILLER_62_314
*1569 FILLER_62_318
*1570 FILLER_62_321
*1571 FILLER_62_34
*1572 FILLER_62_37
*1573 FILLER_62_385
*1574 FILLER_62_389
*1575 FILLER_62_392
*1576 FILLER_62_456
*1577 FILLER_62_460
*1578 FILLER_62_463
*1579 FILLER_62_495
*1580 FILLER_62_503
*1581 FILLER_62_508
*1582 FILLER_63_137
*1583 FILLER_63_141
*1584 FILLER_63_144
*1585 FILLER_63_2
*1586 FILLER_63_208
*1587 FILLER_63_212
*1588 FILLER_63_215
*1589 FILLER_63_279
*1590 FILLER_63_283
*1591 FILLER_63_286
*1592 FILLER_63_350
*1593 FILLER_63_354
*1594 FILLER_63_357
*1595 FILLER_63_421
*1596 FILLER_63_425
*1597 FILLER_63_428
*1598 FILLER_63_492
*1599 FILLER_63_496
*1600 FILLER_63_499
*1601 FILLER_63_507
*1602 FILLER_63_66
*1603 FILLER_63_70
*1604 FILLER_63_73
*1605 FILLER_64_101
*1606 FILLER_64_105
*1607 FILLER_64_108