*SPEF "ieee 1481-1999"
*DESIGN "user_project_wrapper"
*DATE "11:11:11 Fri 11 11, 1111"
*VENDOR "OpenRCX"
*PROGRAM "Parallel Extraction"
*VERSION "1.0"
*DESIGN_FLOW "NAME_SCOPE LOCAL" "PIN_CAP NONE"
*DIVIDER /
*DELIMITER :
*BUS_DELIMITER []
*T_UNIT 1 NS
*C_UNIT 1 PF
*R_UNIT 1 OHM
*L_UNIT 1 HENRY

*NAME_MAP
*1 io_in[0]
*2 io_in[10]
*3 io_in[11]
*4 io_in[12]
*5 io_in[13]
*6 io_in[14]
*7 io_in[15]
*8 io_in[16]
*9 io_in[17]
*10 io_in[18]
*11 io_in[19]
*12 io_in[1]
*13 io_in[20]
*14 io_in[21]
*15 io_in[22]
*16 io_in[23]
*17 io_in[24]
*18 io_in[25]
*19 io_in[26]
*20 io_in[27]
*21 io_in[28]
*22 io_in[29]
*23 io_in[2]
*24 io_in[30]
*25 io_in[31]
*26 io_in[32]
*27 io_in[33]
*28 io_in[34]
*29 io_in[35]
*30 io_in[36]
*31 io_in[37]
*32 io_in[3]
*33 io_in[4]
*34 io_in[5]
*35 io_in[6]
*36 io_in[7]
*37 io_in[8]
*38 io_in[9]
*39 io_oeb[0]
*40 io_oeb[10]
*41 io_oeb[11]
*42 io_oeb[12]
*43 io_oeb[13]
*44 io_oeb[14]
*45 io_oeb[15]
*46 io_oeb[16]
*47 io_oeb[17]
*48 io_oeb[18]
*49 io_oeb[19]
*50 io_oeb[1]
*51 io_oeb[20]
*52 io_oeb[21]
*53 io_oeb[22]
*54 io_oeb[23]
*55 io_oeb[24]
*56 io_oeb[25]
*57 io_oeb[26]
*58 io_oeb[27]
*59 io_oeb[28]
*60 io_oeb[29]
*61 io_oeb[2]
*62 io_oeb[30]
*63 io_oeb[31]
*64 io_oeb[32]
*65 io_oeb[33]
*66 io_oeb[34]
*67 io_oeb[35]
*68 io_oeb[36]
*69 io_oeb[37]
*70 io_oeb[3]
*71 io_oeb[4]
*72 io_oeb[5]
*73 io_oeb[6]
*74 io_oeb[7]
*75 io_oeb[8]
*76 io_oeb[9]
*77 io_out[0]
*78 io_out[10]
*79 io_out[11]
*80 io_out[12]
*81 io_out[13]
*82 io_out[14]
*83 io_out[15]
*84 io_out[16]
*85 io_out[17]
*86 io_out[18]
*87 io_out[19]
*88 io_out[1]
*89 io_out[20]
*90 io_out[21]
*91 io_out[22]
*92 io_out[23]
*93 io_out[24]
*94 io_out[25]
*95 io_out[26]
*96 io_out[27]
*97 io_out[28]
*98 io_out[29]
*99 io_out[2]
*100 io_out[30]
*101 io_out[31]
*102 io_out[32]
*103 io_out[33]
*104 io_out[34]
*105 io_out[35]
*106 io_out[36]
*107 io_out[37]
*108 io_out[3]
*109 io_out[4]
*110 io_out[5]
*111 io_out[6]
*112 io_out[7]
*113 io_out[8]
*114 io_out[9]
*115 la_data_in[0]
*116 la_data_in[10]
*117 la_data_in[11]
*118 la_data_in[12]
*119 la_data_in[13]
*120 la_data_in[14]
*121 la_data_in[15]
*122 la_data_in[16]
*123 la_data_in[17]
*124 la_data_in[18]
*125 la_data_in[19]
*126 la_data_in[1]
*127 la_data_in[20]
*128 la_data_in[21]
*129 la_data_in[22]
*130 la_data_in[23]
*131 la_data_in[24]
*132 la_data_in[25]
*133 la_data_in[26]
*134 la_data_in[27]
*135 la_data_in[28]
*136 la_data_in[29]
*137 la_data_in[2]
*138 la_data_in[30]
*139 la_data_in[31]
*140 la_data_in[32]
*141 la_data_in[33]
*142 la_data_in[34]
*143 la_data_in[35]
*144 la_data_in[36]
*145 la_data_in[37]
*146 la_data_in[38]
*147 la_data_in[39]
*148 la_data_in[3]
*149 la_data_in[40]
*150 la_data_in[41]
*151 la_data_in[42]
*152 la_data_in[43]
*153 la_data_in[44]
*154 la_data_in[45]
*155 la_data_in[46]
*156 la_data_in[47]
*157 la_data_in[48]
*158 la_data_in[49]
*159 la_data_in[4]
*160 la_data_in[50]
*161 la_data_in[51]
*162 la_data_in[52]
*163 la_data_in[53]
*164 la_data_in[54]
*165 la_data_in[55]
*166 la_data_in[56]
*167 la_data_in[57]
*168 la_data_in[58]
*169 la_data_in[59]
*170 la_data_in[5]
*171 la_data_in[60]
*172 la_data_in[61]
*173 la_data_in[62]
*174 la_data_in[63]
*175 la_data_in[6]
*176 la_data_in[7]
*177 la_data_in[8]
*178 la_data_in[9]
*179 la_data_out[0]
*180 la_data_out[10]
*181 la_data_out[11]
*182 la_data_out[12]
*183 la_data_out[13]
*184 la_data_out[14]
*185 la_data_out[15]
*186 la_data_out[16]
*187 la_data_out[17]
*188 la_data_out[18]
*189 la_data_out[19]
*190 la_data_out[1]
*191 la_data_out[20]
*192 la_data_out[21]
*193 la_data_out[22]
*194 la_data_out[23]
*195 la_data_out[24]
*196 la_data_out[25]
*197 la_data_out[26]
*198 la_data_out[27]
*199 la_data_out[28]
*200 la_data_out[29]
*201 la_data_out[2]
*202 la_data_out[30]
*203 la_data_out[31]
*204 la_data_out[32]
*205 la_data_out[33]
*206 la_data_out[34]
*207 la_data_out[35]
*208 la_data_out[36]
*209 la_data_out[37]
*210 la_data_out[38]
*211 la_data_out[39]
*212 la_data_out[3]
*213 la_data_out[40]
*214 la_data_out[41]
*215 la_data_out[42]
*216 la_data_out[43]
*217 la_data_out[44]
*218 la_data_out[45]
*219 la_data_out[46]
*220 la_data_out[47]
*221 la_data_out[48]
*222 la_data_out[49]
*223 la_data_out[4]
*224 la_data_out[50]
*225 la_data_out[51]
*226 la_data_out[52]
*227 la_data_out[53]
*228 la_data_out[54]
*229 la_data_out[55]
*230 la_data_out[56]
*231 la_data_out[57]
*232 la_data_out[58]
*233 la_data_out[59]
*234 la_data_out[5]
*235 la_data_out[60]
*236 la_data_out[61]
*237 la_data_out[62]
*238 la_data_out[63]
*239 la_data_out[6]
*240 la_data_out[7]
*241 la_data_out[8]
*242 la_data_out[9]
*243 la_oenb[0]
*244 la_oenb[10]
*245 la_oenb[11]
*246 la_oenb[12]
*247 la_oenb[13]
*248 la_oenb[14]
*249 la_oenb[15]
*250 la_oenb[16]
*251 la_oenb[17]
*252 la_oenb[18]
*253 la_oenb[19]
*254 la_oenb[1]
*255 la_oenb[20]
*256 la_oenb[21]
*257 la_oenb[22]
*258 la_oenb[23]
*259 la_oenb[24]
*260 la_oenb[25]
*261 la_oenb[26]
*262 la_oenb[27]
*263 la_oenb[28]
*264 la_oenb[29]
*265 la_oenb[2]
*266 la_oenb[30]
*267 la_oenb[31]
*268 la_oenb[32]
*269 la_oenb[33]
*270 la_oenb[34]
*271 la_oenb[35]
*272 la_oenb[36]
*273 la_oenb[37]
*274 la_oenb[38]
*275 la_oenb[39]
*276 la_oenb[3]
*277 la_oenb[40]
*278 la_oenb[41]
*279 la_oenb[42]
*280 la_oenb[43]
*281 la_oenb[44]
*282 la_oenb[45]
*283 la_oenb[46]
*284 la_oenb[47]
*285 la_oenb[48]
*286 la_oenb[49]
*287 la_oenb[4]
*288 la_oenb[50]
*289 la_oenb[51]
*290 la_oenb[52]
*291 la_oenb[53]
*292 la_oenb[54]
*293 la_oenb[55]
*294 la_oenb[56]
*295 la_oenb[57]
*296 la_oenb[58]
*297 la_oenb[59]
*298 la_oenb[5]
*299 la_oenb[60]
*300 la_oenb[61]
*301 la_oenb[62]
*302 la_oenb[63]
*303 la_oenb[6]
*304 la_oenb[7]
*305 la_oenb[8]
*306 la_oenb[9]
*307 user_clock2
*308 user_irq[0]
*309 user_irq[1]
*310 user_irq[2]
*313 wb_clk_i
*314 wb_rst_i
*315 wbs_ack_o
*316 wbs_adr_i[0]
*317 wbs_adr_i[10]
*318 wbs_adr_i[11]
*319 wbs_adr_i[12]
*320 wbs_adr_i[13]
*321 wbs_adr_i[14]
*322 wbs_adr_i[15]
*323 wbs_adr_i[16]
*324 wbs_adr_i[17]
*325 wbs_adr_i[18]
*326 wbs_adr_i[19]
*327 wbs_adr_i[1]
*328 wbs_adr_i[20]
*329 wbs_adr_i[21]
*330 wbs_adr_i[22]
*331 wbs_adr_i[23]
*332 wbs_adr_i[24]
*333 wbs_adr_i[25]
*334 wbs_adr_i[26]
*335 wbs_adr_i[27]
*336 wbs_adr_i[28]
*337 wbs_adr_i[29]
*338 wbs_adr_i[2]
*339 wbs_adr_i[30]
*340 wbs_adr_i[31]
*341 wbs_adr_i[3]
*342 wbs_adr_i[4]
*343 wbs_adr_i[5]
*344 wbs_adr_i[6]
*345 wbs_adr_i[7]
*346 wbs_adr_i[8]
*347 wbs_adr_i[9]
*348 wbs_cyc_i
*349 wbs_dat_i[0]
*350 wbs_dat_i[10]
*351 wbs_dat_i[11]
*352 wbs_dat_i[12]
*353 wbs_dat_i[13]
*354 wbs_dat_i[14]
*355 wbs_dat_i[15]
*356 wbs_dat_i[16]
*357 wbs_dat_i[17]
*358 wbs_dat_i[18]
*359 wbs_dat_i[19]
*360 wbs_dat_i[1]
*361 wbs_dat_i[20]
*362 wbs_dat_i[21]
*363 wbs_dat_i[22]
*364 wbs_dat_i[23]
*365 wbs_dat_i[24]
*366 wbs_dat_i[25]
*367 wbs_dat_i[26]
*368 wbs_dat_i[27]
*369 wbs_dat_i[28]
*370 wbs_dat_i[29]
*371 wbs_dat_i[2]
*372 wbs_dat_i[30]
*373 wbs_dat_i[31]
*374 wbs_dat_i[3]
*375 wbs_dat_i[4]
*376 wbs_dat_i[5]
*377 wbs_dat_i[6]
*378 wbs_dat_i[7]
*379 wbs_dat_i[8]
*380 wbs_dat_i[9]
*381 wbs_dat_o[0]
*382 wbs_dat_o[10]
*383 wbs_dat_o[11]
*384 wbs_dat_o[12]
*385 wbs_dat_o[13]
*386 wbs_dat_o[14]
*387 wbs_dat_o[15]
*388 wbs_dat_o[16]
*389 wbs_dat_o[17]
*390 wbs_dat_o[18]
*391 wbs_dat_o[19]
*392 wbs_dat_o[1]
*393 wbs_dat_o[20]
*394 wbs_dat_o[21]
*395 wbs_dat_o[22]
*396 wbs_dat_o[23]
*397 wbs_dat_o[24]
*398 wbs_dat_o[25]
*399 wbs_dat_o[26]
*400 wbs_dat_o[27]
*401 wbs_dat_o[28]
*402 wbs_dat_o[29]
*403 wbs_dat_o[2]
*404 wbs_dat_o[30]
*405 wbs_dat_o[31]
*406 wbs_dat_o[3]
*407 wbs_dat_o[4]
*408 wbs_dat_o[5]
*409 wbs_dat_o[6]
*410 wbs_dat_o[7]
*411 wbs_dat_o[8]
*412 wbs_dat_o[9]
*413 wbs_sel_i[0]
*414 wbs_sel_i[1]
*415 wbs_sel_i[2]
*416 wbs_sel_i[3]
*417 wbs_stb_i
*418 wbs_we_i
*419 wrapped_multiplier_8_1

*PORTS
io_in[0] I
io_in[10] I
io_in[11] I
io_in[12] I
io_in[13] I
io_in[14] I
io_in[15] I
io_in[16] I
io_in[17] I
io_in[18] I
io_in[19] I
io_in[1] I
io_in[20] I
io_in[21] I
io_in[22] I
io_in[23] I
io_in[24] I
io_in[25] I
io_in[26] I
io_in[27] I
io_in[28] I
io_in[29] I
io_in[2] I
io_in[30] I
io_in[31] I
io_in[32] I
io_in[33] I
io_in[34] I
io_in[35] I
io_in[36] I
io_in[37] I
io_in[3] I
io_in[4] I
io_in[5] I
io_in[6] I
io_in[7] I
io_in[8] I
io_in[9] I
io_oeb[0] O
io_oeb[10] O
io_oeb[11] O
io_oeb[12] O
io_oeb[13] O
io_oeb[14] O
io_oeb[15] O
io_oeb[16] O
io_oeb[17] O
io_oeb[18] O
io_oeb[19] O
io_oeb[1] O
io_oeb[20] O
io_oeb[21] O
io_oeb[22] O
io_oeb[23] O
io_oeb[24] O
io_oeb[25] O
io_oeb[26] O
io_oeb[27] O
io_oeb[28] O
io_oeb[29] O
io_oeb[2] O
io_oeb[30] O
io_oeb[31] O
io_oeb[32] O
io_oeb[33] O
io_oeb[34] O
io_oeb[35] O
io_oeb[36] O
io_oeb[37] O
io_oeb[3] O
io_oeb[4] O
io_oeb[5] O
io_oeb[6] O
io_oeb[7] O
io_oeb[8] O
io_oeb[9] O
io_out[0] O
io_out[10] O
io_out[11] O
io_out[12] O
io_out[13] O
io_out[14] O
io_out[15] O
io_out[16] O
io_out[17] O
io_out[18] O
io_out[19] O
io_out[1] O
io_out[20] O
io_out[21] O
io_out[22] O
io_out[23] O
io_out[24] O
io_out[25] O
io_out[26] O
io_out[27] O
io_out[28] O
io_out[29] O
io_out[2] O
io_out[30] O
io_out[31] O
io_out[32] O
io_out[33] O
io_out[34] O
io_out[35] O
io_out[36] O
io_out[37] O
io_out[3] O
io_out[4] O
io_out[5] O
io_out[6] O
io_out[7] O
io_out[8] O
io_out[9] O
la_data_in[0] I
la_data_in[10] I
la_data_in[11] I
la_data_in[12] I
la_data_in[13] I
la_data_in[14] I
la_data_in[15] I
la_data_in[16] I
la_data_in[17] I
la_data_in[18] I
la_data_in[19] I
la_data_in[1] I
la_data_in[20] I
la_data_in[21] I
la_data_in[22] I
la_data_in[23] I
la_data_in[24] I
la_data_in[25] I
la_data_in[26] I
la_data_in[27] I
la_data_in[28] I
la_data_in[29] I
la_data_in[2] I
la_data_in[30] I
la_data_in[31] I
la_data_in[32] I
la_data_in[33] I
la_data_in[34] I
la_data_in[35] I
la_data_in[36] I
la_data_in[37] I
la_data_in[38] I
la_data_in[39] I
la_data_in[3] I
la_data_in[40] I
la_data_in[41] I
la_data_in[42] I
la_data_in[43] I
la_data_in[44] I
la_data_in[45] I
la_data_in[46] I
la_data_in[47] I
la_data_in[48] I
la_data_in[49] I
la_data_in[4] I
la_data_in[50] I
la_data_in[51] I
la_data_in[52] I
la_data_in[53] I
la_data_in[54] I
la_data_in[55] I
la_data_in[56] I
la_data_in[57] I
la_data_in[58] I
la_data_in[59] I
la_data_in[5] I
la_data_in[60] I
la_data_in[61] I
la_data_in[62] I
la_data_in[63] I
la_data_in[6] I
la_data_in[7] I
la_data_in[8] I
la_data_in[9] I
la_data_out[0] O
la_data_out[10] O
la_data_out[11] O
la_data_out[12] O
la_data_out[13] O
la_data_out[14] O
la_data_out[15] O
la_data_out[16] O
la_data_out[17] O
la_data_out[18] O
la_data_out[19] O
la_data_out[1] O
la_data_out[20] O
la_data_out[21] O
la_data_out[22] O
la_data_out[23] O
la_data_out[24] O
la_data_out[25] O
la_data_out[26] O
la_data_out[27] O
la_data_out[28] O
la_data_out[29] O
la_data_out[2] O
la_data_out[30] O
la_data_out[31] O
la_data_out[32] O
la_data_out[33] O
la_data_out[34] O
la_data_out[35] O
la_data_out[36] O
la_data_out[37] O
la_data_out[38] O
la_data_out[39] O
la_data_out[3] O
la_data_out[40] O
la_data_out[41] O
la_data_out[42] O
la_data_out[43] O
la_data_out[44] O
la_data_out[45] O
la_data_out[46] O
la_data_out[47] O
la_data_out[48] O
la_data_out[49] O
la_data_out[4] O
la_data_out[50] O
la_data_out[51] O
la_data_out[52] O
la_data_out[53] O
la_data_out[54] O
la_data_out[55] O
la_data_out[56] O
la_data_out[57] O
la_data_out[58] O
la_data_out[59] O
la_data_out[5] O
la_data_out[60] O
la_data_out[61] O
la_data_out[62] O
la_data_out[63] O
la_data_out[6] O
la_data_out[7] O
la_data_out[8] O
la_data_out[9] O
la_oenb[0] I
la_oenb[10] I
la_oenb[11] I
la_oenb[12] I
la_oenb[13] I
la_oenb[14] I
la_oenb[15] I
la_oenb[16] I
la_oenb[17] I
la_oenb[18] I
la_oenb[19] I
la_oenb[1] I
la_oenb[20] I
la_oenb[21] I
la_oenb[22] I
la_oenb[23] I
la_oenb[24] I
la_oenb[25] I
la_oenb[26] I
la_oenb[27] I
la_oenb[28] I
la_oenb[29] I
la_oenb[2] I
la_oenb[30] I
la_oenb[31] I
la_oenb[32] I
la_oenb[33] I
la_oenb[34] I
la_oenb[35] I
la_oenb[36] I
la_oenb[37] I
la_oenb[38] I
la_oenb[39] I
la_oenb[3] I
la_oenb[40] I
la_oenb[41] I
la_oenb[42] I
la_oenb[43] I
la_oenb[44] I
la_oenb[45] I
la_oenb[46] I
la_oenb[47] I
la_oenb[48] I
la_oenb[49] I
la_oenb[4] I
la_oenb[50] I
la_oenb[51] I
la_oenb[52] I
la_oenb[53] I
la_oenb[54] I
la_oenb[55] I
la_oenb[56] I
la_oenb[57] I
la_oenb[58] I
la_oenb[59] I
la_oenb[5] I
la_oenb[60] I
la_oenb[61] I
la_oenb[62] I
la_oenb[63] I
la_oenb[6] I
la_oenb[7] I
la_oenb[8] I
la_oenb[9] I
user_clock2 I
user_irq[0] O
user_irq[1] O
user_irq[2] O
wb_clk_i I
wb_rst_i I
wbs_ack_o O
wbs_adr_i[0] I
wbs_adr_i[10] I
wbs_adr_i[11] I
wbs_adr_i[12] I
wbs_adr_i[13] I
wbs_adr_i[14] I
wbs_adr_i[15] I
wbs_adr_i[16] I
wbs_adr_i[17] I
wbs_adr_i[18] I
wbs_adr_i[19] I
wbs_adr_i[1] I
wbs_adr_i[20] I
wbs_adr_i[21] I
wbs_adr_i[22] I
wbs_adr_i[23] I
wbs_adr_i[24] I
wbs_adr_i[25] I
wbs_adr_i[26] I
wbs_adr_i[27] I
wbs_adr_i[28] I
wbs_adr_i[29] I
wbs_adr_i[2] I
wbs_adr_i[30] I
wbs_adr_i[31] I
wbs_adr_i[3] I
wbs_adr_i[4] I
wbs_adr_i[5] I
wbs_adr_i[6] I
wbs_adr_i[7] I
wbs_adr_i[8] I
wbs_adr_i[9] I
wbs_cyc_i I
wbs_dat_i[0] I
wbs_dat_i[10] I
wbs_dat_i[11] I
wbs_dat_i[12] I
wbs_dat_i[13] I
wbs_dat_i[14] I
wbs_dat_i[15] I
wbs_dat_i[16] I
wbs_dat_i[17] I
wbs_dat_i[18] I
wbs_dat_i[19] I
wbs_dat_i[1] I
wbs_dat_i[20] I
wbs_dat_i[21] I
wbs_dat_i[22] I
wbs_dat_i[23] I
wbs_dat_i[24] I
wbs_dat_i[25] I
wbs_dat_i[26] I
wbs_dat_i[27] I
wbs_dat_i[28] I
wbs_dat_i[29] I
wbs_dat_i[2] I
wbs_dat_i[30] I
wbs_dat_i[31] I
wbs_dat_i[3] I
wbs_dat_i[4] I
wbs_dat_i[5] I
wbs_dat_i[6] I
wbs_dat_i[7] I
wbs_dat_i[8] I
wbs_dat_i[9] I
wbs_dat_o[0] O
wbs_dat_o[10] O
wbs_dat_o[11] O
wbs_dat_o[12] O
wbs_dat_o[13] O
wbs_dat_o[14] O
wbs_dat_o[15] O
wbs_dat_o[16] O
wbs_dat_o[17] O
wbs_dat_o[18] O
wbs_dat_o[19] O
wbs_dat_o[1] O
wbs_dat_o[20] O
wbs_dat_o[21] O
wbs_dat_o[22] O
wbs_dat_o[23] O
wbs_dat_o[24] O
wbs_dat_o[25] O
wbs_dat_o[26] O
wbs_dat_o[27] O
wbs_dat_o[28] O
wbs_dat_o[29] O
wbs_dat_o[2] O
wbs_dat_o[30] O
wbs_dat_o[31] O
wbs_dat_o[3] O
wbs_dat_o[4] O
wbs_dat_o[5] O
wbs_dat_o[6] O
wbs_dat_o[7] O
wbs_dat_o[8] O
wbs_dat_o[9] O
wbs_sel_i[0] I
wbs_sel_i[1] I
wbs_sel_i[2] I
wbs_sel_i[3] I
wbs_stb_i I
wbs_we_i I

*D_NET *1 0.286753
*CONN
*P io_in[0] I
*I *419:io_in[0] I *D wrapped_multiplier_8
*CAP
1 io_in[0] 0.00466579
2 *419:io_in[0] 0.00121434
3 *1:12 0.0828403
4 *1:11 0.081626
5 *1:9 0.0558705
6 *1:7 0.0605363
7 *1:12 *26:16 0
8 *1:12 *30:12 0
9 *1:12 *57:8 0
10 *1:12 *66:8 0
*RES
1 io_in[0] *1:7 37.305 
2 *1:7 *1:9 438.84 
3 *1:9 *1:11 4.5 
4 *1:11 *1:12 625.23 
5 *1:12 *419:io_in[0] 12.825 
*END

*D_NET *2 0.150058
*CONN
*P io_in[10] I
*I *419:io_in[10] I *D wrapped_multiplier_8
*CAP
1 io_in[10] 0.000897733
2 *419:io_in[10] 0.00191083
3 *2:11 0.061334
4 *2:10 0.0594232
5 *2:8 0.00773396
6 *2:7 0.00863169
7 *2:8 *3:8 0.00186626
8 *2:8 *5:8 0.00166121
9 *2:8 *43:14 3.13604e-05
10 *2:8 *78:11 0.00653169
11 *2:11 io_oeb[8] 3.60715e-05
*RES
1 io_in[10] *2:7 11.745 
2 *2:7 *2:8 84.33 
3 *2:8 *2:10 4.5 
4 *2:10 *2:11 464.22 
5 *2:11 *419:io_in[10] 13.995 
*END

*D_NET *3 0.326186
*CONN
*P io_in[11] I
*I *419:io_in[11] I *D wrapped_multiplier_8
*CAP
1 io_in[11] 0.000859003
2 *419:io_in[11] 0.00086942
3 *3:11 0.0385343
4 *3:10 0.0376648
5 *3:8 0.00510116
6 *3:7 0.00596016
7 *3:8 *5:8 0.0112925
8 *3:11 *5:11 4.72127e-05
9 *3:11 *38:19 0.00101749
10 *3:11 *43:11 0.221795
11 *3:11 *93:11 0.00117896
12 *2:8 *3:8 0.00186626
*RES
1 io_in[11] *3:7 11.565 
2 *3:7 *3:8 68.49 
3 *3:8 *3:10 4.5 
4 *3:10 *3:11 562.77 
5 *3:11 *419:io_in[11] 18.6965 
*END

*D_NET *4 0.288886
*CONN
*P io_in[12] I
*I *419:io_in[12] I *D wrapped_multiplier_8
*CAP
1 io_in[12] 0.000940848
2 *419:io_in[12] 0.0008111
3 *4:14 0.00501795
4 *4:13 0.00420685
5 *4:11 0.0701839
6 *4:10 0.0701839
7 *4:8 8.16e-05
8 *4:7 0.00102245
9 *4:8 *5:8 0.0498286
10 *4:8 *43:14 0.0498366
11 *4:11 *85:17 0.0254389
12 *4:11 *97:11 0
13 *4:14 io_out[20] 0.0074808
14 *4:14 *71:8 0.00385248
*RES
1 io_in[12] *4:7 12.105 
2 *4:7 *4:8 126.81 
3 *4:8 *4:10 4.5 
4 *4:10 *4:11 577.53 
5 *4:11 *4:13 4.5 
6 *4:13 *4:14 53.19 
7 *4:14 *419:io_in[12] 10.305 
*END

*D_NET *5 0.355991
*CONN
*P io_in[13] I
*I *419:io_in[13] I *D wrapped_multiplier_8
*CAP
1 io_in[13] 0.000902119
2 *419:io_in[13] 0.000923459
3 *5:11 0.0328526
4 *5:10 0.0319291
5 *5:8 0.00960437
6 *5:7 0.0105065
7 *5:8 *43:14 0.0121733
8 *5:11 *6:11 0.193644
9 *5:11 *43:11 5.00685e-05
10 *5:11 *55:13 0.000575524
11 *2:8 *5:8 0.00166121
12 *3:8 *5:8 0.0112925
13 *3:11 *5:11 4.72127e-05
14 *4:8 *5:8 0.0498286
*RES
1 io_in[13] *5:7 11.925 
2 *5:7 *5:8 195.39 
3 *5:8 *5:10 4.5 
4 *5:10 *5:11 485.73 
5 *5:11 *419:io_in[13] 19.2365 
*END

*D_NET *6 0.560713
*CONN
*P io_in[14] I
*I *419:io_in[14] I *D wrapped_multiplier_8
*CAP
1 io_in[14] 0.00125228
2 *419:io_in[14] 0.000868524
3 *6:11 0.00383567
4 *6:10 0.00296714
5 *6:8 0.00350891
6 *6:7 0.00476119
7 *6:8 *43:14 0.0376909
8 *6:8 *44:11 0.101929
9 *6:8 *78:11 0.0100737
10 *6:11 *43:11 0.200182
11 *5:11 *6:11 0.193644
*RES
1 io_in[14] *6:7 12.645 
2 *6:7 *6:8 259.29 
3 *6:8 *6:10 4.5 
4 *6:10 *6:11 501.21 
5 *6:11 *419:io_in[14] 19.0565 
*END

*D_NET *7 0.373063
*CONN
*P io_in[15] I
*I *419:io_in[15] I *D wrapped_multiplier_8
*CAP
1 io_in[15] 0.0411051
2 *419:io_in[15] 0.00273883
3 *7:8 0.0427421
4 *7:7 0.0400033
5 *7:5 0.0411051
6 *419:io_in[15] *79:14 0
7 *419:io_in[15] *87:8 0.0150552
8 *7:8 *8:16 0.181123
9 *7:8 *24:19 0.000696211
10 *7:8 *40:10 0
11 *7:8 *112:13 0.00849391
*RES
1 io_in[15] *7:5 316.125 
2 *7:5 *7:7 4.5 
3 *7:7 *7:8 562.05 
4 *7:8 *419:io_in[15] 48.015 
*END

*D_NET *8 0.389154
*CONN
*P io_in[16] I
*I *419:io_in[16] I *D wrapped_multiplier_8
*CAP
1 io_in[16] 0.000247817
2 *419:io_in[16] 0.000104484
3 *8:19 0.00417593
4 *8:18 0.00407145
5 *8:16 0.0259033
6 *8:15 0.0259033
7 *8:13 0.0411039
8 *8:11 0.0413517
9 *8:16 *13:8 0.0268739
10 *8:16 *38:19 0
11 *8:16 *81:13 0.000218075
12 *8:19 *50:8 0.00359303
13 *8:19 *87:8 0.0307189
14 *8:19 *114:10 0.00376494
15 *7:8 *8:16 0.181123
*RES
1 io_in[16] *8:11 2.655 
2 *8:11 *8:13 315.99 
3 *8:13 *8:15 4.5 
4 *8:15 *8:16 454.41 
5 *8:16 *8:18 4.5 
6 *8:18 *8:19 81.99 
7 *8:19 *419:io_in[16] 5.265 
*END

*D_NET *9 0.171296
*CONN
*P io_in[17] I
*I *419:io_in[17] I *D wrapped_multiplier_8
*CAP
1 io_in[17] 0.00133604
2 *419:io_in[17] 0.00129652
3 *9:14 0.0368316
4 *9:13 0.035535
5 *9:11 0.0391118
6 *9:10 0.0404478
7 *9:10 *83:13 0.000254726
8 *9:14 *20:11 0.00512734
9 *9:14 *21:11 0.00985175
10 *9:14 *97:11 0.00150301
*RES
1 io_in[17] *9:10 19.935 
2 *9:10 *9:11 301.59 
3 *9:11 *9:13 4.5 
4 *9:13 *9:14 313.65 
5 *9:14 *419:io_in[17] 21.7565 
*END

*D_NET *10 0.213477
*CONN
*P io_in[18] I
*I *419:io_in[18] I *D wrapped_multiplier_8
*CAP
1 io_in[18] 0.00105188
2 *419:io_in[18] 0.000350394
3 *10:14 0.00627755
4 *10:13 0.00592716
5 *10:11 0.0532927
6 *10:10 0.0532927
7 *10:8 0.0110884
8 *10:7 0.0121403
9 *10:8 *11:10 0.0106671
10 *10:8 *86:14 0.0282892
11 *10:14 *42:8 0.0016765
12 *10:14 *44:8 0
13 *10:14 *60:11 0.0294232
*RES
1 io_in[18] *10:7 12.645 
2 *10:7 *10:8 133.29 
3 *10:8 *10:10 4.5 
4 *10:10 *10:11 407.61 
5 *10:11 *10:13 4.5 
6 *10:13 *10:14 83.61 
7 *10:14 *419:io_in[18] 6.525 
*END

*D_NET *11 0.151929
*CONN
*P io_in[19] I
*I *419:io_in[19] I *D wrapped_multiplier_8
*CAP
1 io_in[19] 0.00110759
2 *419:io_in[19] 0.00138578
3 *11:13 0.0526806
4 *11:12 0.0512948
5 *11:10 0.0168251
6 *11:9 0.0179327
7 *11:9 *86:11 3.5516e-05
8 *10:8 *11:10 0.0106671
*RES
1 io_in[19] *11:9 13.095 
2 *11:9 *11:10 144.27 
3 *11:10 *11:12 4.5 
4 *11:12 *11:13 392.85 
5 *11:13 *419:io_in[19] 12.825 
*END

*D_NET *12 0.269746
*CONN
*P io_in[1] I
*I *419:io_in[1] I *D wrapped_multiplier_8
*CAP
1 io_in[1] 0.000370905
2 *419:io_in[1] 4.85048e-05
3 *12:19 0.0192878
4 *12:18 0.0192393
5 *12:16 0.0726315
6 *12:15 0.0726315
7 *12:13 0.0425829
8 *12:11 0.0429538
*RES
1 io_in[1] *12:11 3.195 
2 *12:11 *12:13 335.07 
3 *12:13 *12:15 4.5 
4 *12:15 *12:16 556.29 
5 *12:16 *12:18 4.5 
6 *12:18 *12:19 148.77 
7 *12:19 *419:io_in[1] 0.405 
*END

*D_NET *13 0.156236
*CONN
*P io_in[20] I
*I *419:io_in[20] I *D wrapped_multiplier_8
*CAP
1 io_in[20] 0.0411465
2 *419:io_in[20] 0.000369638
3 *13:11 0.0098351
4 *13:10 0.00946546
5 *13:8 0.00469526
6 *13:7 0.00469526
7 *13:5 0.0411465
8 *13:8 *38:19 0
9 *13:11 *17:16 0.00108322
10 *13:11 *40:9 0.000104295
11 *13:11 *314:11 0.0168207
12 *8:16 *13:8 0.0268739
*RES
1 io_in[20] *13:5 315.765 
2 *13:5 *13:7 4.5 
3 *13:7 *13:8 67.77 
4 *13:8 *13:10 4.5 
5 *13:10 *13:11 95.13 
6 *13:11 *419:io_in[20] 6.345 
*END

*D_NET *14 0.146837
*CONN
*P io_in[21] I
*I *419:io_in[21] I *D wrapped_multiplier_8
*CAP
1 io_in[21] 0.00141746
2 *419:io_in[21] 0.00193656
3 *14:14 0.0168759
4 *14:13 0.0149394
5 *14:11 0.0384792
6 *14:10 0.0398966
7 *14:14 *87:11 0.0332918
*RES
1 io_in[21] *14:10 19.935 
2 *14:10 *14:11 296.55 
3 *14:11 *14:13 4.5 
4 *14:13 *14:14 157.23 
5 *14:14 *419:io_in[21] 26.7965 
*END

*D_NET *15 0.137488
*CONN
*P io_in[22] I
*I *419:io_in[22] I *D wrapped_multiplier_8
*CAP
1 io_in[22] 0.00107486
2 *419:io_in[22] 0.0158462
3 *15:13 0.0158462
4 *15:11 0.0441886
5 *15:10 0.0441886
6 *15:8 0.00763447
7 *15:7 0.00870934
*RES
1 io_in[22] *15:7 12.825 
2 *15:7 *15:8 59.85 
3 *15:8 *15:10 4.5 
4 *15:10 *15:11 338.85 
5 *15:11 *15:13 4.5 
6 *15:13 *419:io_in[22] 122.985 
*END

*D_NET *16 0.159579
*CONN
*P io_in[23] I
*I *419:io_in[23] I *D wrapped_multiplier_8
*CAP
1 io_in[23] 0.00107486
2 *419:io_in[23] 0.0296963
3 *16:13 0.0296963
4 *16:11 0.0415776
5 *16:10 0.0415776
6 *16:8 0.00744045
7 *16:7 0.00851532
*RES
1 io_in[23] *16:7 12.825 
2 *16:7 *16:8 58.23 
3 *16:8 *16:10 4.5 
4 *16:10 *16:11 319.41 
5 *16:11 *16:13 4.5 
6 *16:13 *419:io_in[23] 230.985 
*END

*D_NET *17 0.250096
*CONN
*P io_in[24] I
*I *419:io_in[24] I *D wrapped_multiplier_8
*CAP
1 io_in[24] 0.000201168
2 *419:io_in[24] 0.00188578
3 *17:16 0.0459433
4 *17:15 0.0440575
5 *17:13 0.0752303
6 *17:11 0.0754314
7 *419:io_in[24] *55:8 0.00607951
8 *419:io_in[24] *107:7 0.000183907
9 *17:16 *419:io_in[28] 0
10 *17:16 *55:8 0
11 *17:16 *87:14 0
12 *13:11 *17:16 0.00108322
*RES
1 io_in[24] *17:11 1.935 
2 *17:11 *17:13 476.01 
3 *17:13 *17:15 4.5 
4 *17:15 *17:16 340.47 
5 *17:16 *419:io_in[24] 34.965 
*END

*D_NET *18 0.191505
*CONN
*P io_in[25] I
*I *419:io_in[25] I *D wrapped_multiplier_8
*CAP
1 io_in[25] 0.000125876
2 *419:io_in[25] 0.0262597
3 *18:18 0.0262597
4 *18:16 0.0419511
5 *18:15 0.0419511
6 *18:13 0.0274156
7 *18:11 0.0275415
*RES
1 io_in[25] *18:11 1.395 
2 *18:11 *18:13 173.61 
3 *18:13 *18:15 4.5 
4 *18:15 *18:16 321.93 
5 *18:16 *18:18 4.5 
6 *18:18 *419:io_in[25] 203.985 
*END

*D_NET *19 0.142742
*CONN
*P io_in[26] I
*I *419:io_in[26] I *D wrapped_multiplier_8
*CAP
1 io_in[26] 0.00181137
2 *419:io_in[26] 0.0041566
3 *19:12 0.0269937
4 *19:11 0.0228371
5 *19:9 0.0425659
6 *19:7 0.0443772
*RES
1 io_in[26] *19:7 13.185 
2 *19:7 *19:9 333.54 
3 *19:9 *19:11 4.5 
4 *19:11 *19:12 174.51 
5 *19:12 *419:io_in[26] 35.685 
*END

*D_NET *20 0.252208
*CONN
*P io_in[27] I
*I *419:io_in[27] I *D wrapped_multiplier_8
*CAP
1 io_in[27] 0.00146821
2 *419:io_in[27] 0.00124157
3 *20:11 0.0282792
4 *20:10 0.0270376
5 *20:8 0.0120588
6 *20:7 0.013527
7 *20:8 *58:11 0
8 *20:11 *21:11 0.163468
9 *20:11 *97:11 0
10 *9:14 *20:11 0.00512734
*RES
1 io_in[27] *20:7 13.365 
2 *20:7 *20:8 92.79 
3 *20:8 *20:10 4.5 
4 *20:10 *20:11 414.81 
5 *20:11 *419:io_in[27] 21.5765 
*END

*D_NET *21 0.255103
*CONN
*P io_in[28] I
*I *419:io_in[28] I *D wrapped_multiplier_8
*CAP
1 io_in[28] 0.00566403
2 *419:io_in[28] 0.00188625
3 *21:11 0.0328732
4 *21:10 0.036651
5 *419:io_in[28] *55:8 0.00470811
6 *21:11 *51:11 0
7 *21:11 *52:11 0
8 *21:11 *55:13 0
9 *9:14 *21:11 0.00985175
10 *17:16 *419:io_in[28] 0
11 *20:11 *21:11 0.163468
*RES
1 io_in[28] *21:10 48.195 
2 *21:10 *21:11 463.23 
3 *21:11 *419:io_in[28] 27.495 
*END

*D_NET *22 0.280137
*CONN
*P io_in[29] I
*I *419:io_in[29] I *D wrapped_multiplier_8
*CAP
1 io_in[29] 0.00124489
2 *419:io_in[29] 0.000194561
3 *22:11 0.0263429
4 *22:10 0.0261483
5 *22:8 0.00794695
6 *22:7 0.00919184
7 *22:8 *59:11 0
8 *22:11 *42:8 0.00371398
9 *22:11 *54:8 0.151098
10 *22:11 *86:8 0.0170637
11 *22:11 *88:13 0.000203084
12 *22:11 *114:11 0.0369885
*RES
1 io_in[29] *22:7 13.365 
2 *22:7 *22:8 61.11 
3 *22:8 *22:10 4.5 
4 *22:10 *22:11 461.25 
5 *22:11 *419:io_in[29] 5.805 
*END

*D_NET *23 0.23735
*CONN
*P io_in[2] I
*I *419:io_in[2] I *D wrapped_multiplier_8
*CAP
1 io_in[2] 0.000167227
2 *419:io_in[2] 0.0340713
3 *23:18 0.0340713
4 *23:16 0.0566717
5 *23:15 0.0566717
6 *23:13 0.0277648
7 *23:11 0.027932
*RES
1 io_in[2] *23:11 2.115 
2 *23:11 *23:13 218.97 
3 *23:13 *23:15 4.5 
4 *23:15 *23:16 434.79 
5 *23:16 *23:18 4.5 
6 *23:18 *419:io_in[2] 264.825 
*END

*D_NET *24 0.251513
*CONN
*P io_in[30] I
*I *419:io_in[30] I *D wrapped_multiplier_8
*CAP
1 io_in[30] 0.00303436
2 *419:io_in[30] 0.000209724
3 *24:19 0.0249999
4 *24:18 0.0247901
5 *24:16 0.0138176
6 *24:15 0.0168519
7 *24:19 *98:11 0.158826
8 *24:19 *112:13 0.00828692
9 *7:8 *24:19 0.000696211
*RES
1 io_in[30] *24:15 28.305 
2 *24:15 *24:16 105.57 
3 *24:16 *24:18 4.5 
4 *24:18 *24:19 398.07 
5 *24:19 *419:io_in[30] 14.9165 
*END

*D_NET *25 0.132452
*CONN
*P io_in[31] I
*I *419:io_in[31] I *D wrapped_multiplier_8
*CAP
1 io_in[31] 0.00177706
2 *419:io_in[31] 0.000304505
3 *25:12 0.010319
4 *25:11 0.0100145
5 *25:9 0.0539782
6 *25:7 0.0557553
7 *25:12 *45:7 0.00030345
*RES
1 io_in[31] *25:7 13.185 
2 *25:7 *25:9 421.38 
3 *25:9 *25:11 4.5 
4 *25:11 *25:12 76.59 
5 *25:12 *419:io_in[31] 2.385 
*END

*D_NET *26 0.177609
*CONN
*P io_in[32] I
*I *419:io_in[32] I *D wrapped_multiplier_8
*CAP
1 io_in[32] 0.000323383
2 *419:io_in[32] 0.00104628
3 *26:16 0.0267375
4 *26:15 0.0256912
5 *26:13 0.0617435
6 *26:11 0.0620669
7 *1:12 *26:16 0
*RES
1 io_in[32] *26:11 3.015 
2 *26:11 *26:13 480.15 
3 *26:13 *26:15 4.5 
4 *26:15 *26:16 195.93 
5 *26:16 *419:io_in[32] 11.565 
*END

*D_NET *27 0.167742
*CONN
*P io_in[33] I
*I *419:io_in[33] I *D wrapped_multiplier_8
*CAP
1 io_in[33] 0.00350038
2 *419:io_in[33] 0.0451804
3 *27:18 0.0451804
4 *27:16 0.0351904
5 *27:15 0.0386908
*RES
1 io_in[33] *27:15 32.085 
2 *27:15 *27:16 270.09 
3 *27:16 *27:18 4.5 
4 *27:18 *419:io_in[33] 352.485 
*END

*D_NET *28 0.19915
*CONN
*P io_in[34] I
*I *419:io_in[34] I *D wrapped_multiplier_8
*CAP
1 io_in[34] 0.00471776
2 *419:io_in[34] 9.76714e-05
3 *28:22 0.0349524
4 *28:21 0.0348547
5 *28:19 0.059905
6 *28:18 0.0646228
*RES
1 io_in[34] *28:18 45.315 
2 *28:18 *28:19 379.71 
3 *28:19 *28:21 4.5 
4 *28:21 *28:22 267.03 
5 *28:22 *419:io_in[34] 0.765 
*END

*D_NET *29 0.19726
*CONN
*P io_in[35] I
*I *419:io_in[35] I *D wrapped_multiplier_8
*CAP
1 io_in[35] 0.000113196
2 *419:io_in[35] 0.000166616
3 *29:22 0.0423636
4 *29:21 0.042197
5 *29:19 0.0110061
6 *29:18 0.01437
7 *29:13 0.0451469
8 *29:11 0.0418962
*RES
1 io_in[35] *29:11 1.395 
2 *29:11 *29:13 327.51 
3 *29:13 *29:18 34.65 
4 *29:18 *29:19 85.23 
5 *29:19 *29:21 4.5 
6 *29:21 *29:22 323.73 
7 *29:22 *419:io_in[35] 1.305 
*END

*D_NET *30 0.326139
*CONN
*P io_in[36] I
*I *419:io_in[36] I *D wrapped_multiplier_8
*CAP
1 io_in[36] 0.00177706
2 *419:io_in[36] 0.00142115
3 *30:12 0.0351107
4 *30:11 0.0336896
5 *30:9 0.0600248
6 *30:7 0.0618019
7 *30:12 *66:8 0.132314
8 *1:12 *30:12 0
*RES
1 io_in[36] *30:7 13.185 
2 *30:7 *30:9 469.98 
3 *30:9 *30:11 4.5 
4 *30:11 *30:12 425.97 
5 *30:12 *419:io_in[36] 14.265 
*END

*D_NET *31 0.243122
*CONN
*P io_in[37] I
*I *419:io_in[37] I *D wrapped_multiplier_8
*CAP
1 io_in[37] 0.000323383
2 *419:io_in[37] 0.00577343
3 *31:16 0.0786928
4 *31:15 0.0729194
5 *31:13 0.0425447
6 *31:11 0.0428681
*RES
1 io_in[37] *31:11 3.015 
2 *31:11 *31:13 332.91 
3 *31:13 *31:15 4.5 
4 *31:15 *31:16 560.07 
5 *31:16 *419:io_in[37] 49.185 
*END

*D_NET *32 0.24832
*CONN
*P io_in[3] I
*I *419:io_in[3] I *D wrapped_multiplier_8
*CAP
1 io_in[3] 0.0702214
2 *419:io_in[3] 0.000210827
3 *32:8 0.0539387
4 *32:7 0.0537279
5 *32:5 0.0702214
*RES
1 io_in[3] *32:5 549.765 
2 *32:5 *32:7 4.5 
3 *32:7 *32:8 437.31 
4 *32:8 *419:io_in[3] 19.7139 
*END

*D_NET *33 0.205647
*CONN
*P io_in[4] I
*I *419:io_in[4] I *D wrapped_multiplier_8
*CAP
1 io_in[4] 0.0002319
2 *419:io_in[4] 0.00190945
3 *33:19 0.0418712
4 *33:18 0.0399618
5 *33:16 0.0405122
6 *33:15 0.0405122
7 *33:13 0.0202083
8 *33:11 0.0204402
9 *33:16 *84:11 0
*RES
1 io_in[4] *33:11 2.655 
2 *33:11 *33:13 159.57 
3 *33:13 *33:15 4.5 
4 *33:15 *33:16 310.59 
5 *33:16 *33:18 4.5 
6 *33:18 *33:19 311.94 
7 *33:19 *419:io_in[4] 13.995 
*END

*D_NET *34 0.194277
*CONN
*P io_in[5] I
*I *419:io_in[5] I *D wrapped_multiplier_8
*CAP
1 io_in[5] 0.00466579
2 *419:io_in[5] 0.00234797
3 *34:15 0.0426351
4 *34:14 0.0402871
5 *34:12 0.0345477
6 *34:11 0.0345477
7 *34:9 0.0152901
8 *34:7 0.0199559
*RES
1 io_in[5] *34:7 37.305 
2 *34:7 *34:9 120.24 
3 *34:9 *34:11 4.5 
4 *34:11 *34:12 264.69 
5 *34:12 *34:14 4.5 
6 *34:14 *34:15 314.64 
7 *34:15 *419:io_in[5] 14.535 
*END

*D_NET *35 0.196878
*CONN
*P io_in[6] I
*I *419:io_in[6] I *D wrapped_multiplier_8
*CAP
1 io_in[6] 0.000370905
2 *419:io_in[6] 0.000290954
3 *35:16 0.0309036
4 *35:15 0.0306127
5 *35:13 0.0671646
6 *35:11 0.0675355
*RES
1 io_in[6] *35:11 3.195 
2 *35:11 *35:13 525.51 
3 *35:13 *35:15 4.5 
4 *35:15 *35:16 248.31 
5 *35:16 *419:io_in[6] 20.3713 
*END

*D_NET *36 0.242959
*CONN
*P io_in[7] I
*I *419:io_in[7] I *D wrapped_multiplier_8
*CAP
1 io_in[7] 0.000167227
2 *419:io_in[7] 2.69471e-05
3 *36:19 0.0231012
4 *36:18 0.0230742
5 *36:16 0.0166485
6 *36:15 0.0166485
7 *36:13 0.0195465
8 *36:11 0.0197137
9 *36:19 *38:13 0.124032
*RES
1 io_in[7] *36:11 2.115 
2 *36:11 *36:13 154.17 
3 *36:13 *36:15 4.5 
4 *36:15 *36:16 127.17 
5 *36:16 *36:18 4.5 
6 *36:18 *36:19 329.67 
7 *36:19 *419:io_in[7] 0.225 
*END

*D_NET *37 0.192311
*CONN
*P io_in[8] I
*I *419:io_in[8] I *D wrapped_multiplier_8
*CAP
1 io_in[8] 0.059627
2 *419:io_in[8] 0.000274111
3 *37:11 0.0015767
4 *37:10 0.00130259
5 *37:8 0.0158378
6 *37:7 0.0158378
7 *37:5 0.059627
8 *37:11 *98:11 0.00111452
9 *37:11 *110:13 0.0150022
10 *37:11 *112:13 0.0221107
*RES
1 io_in[8] *37:5 467.325 
2 *37:5 *37:7 4.5 
3 *37:7 *37:8 119.07 
4 *37:8 *37:10 4.5 
5 *37:10 *37:11 55.71 
6 *37:11 *419:io_in[8] 15.4448 
*END

*D_NET *38 0.237254
*CONN
*P io_in[9] I
*I *419:io_in[9] I *D wrapped_multiplier_8
*CAP